pglib_opf_case10480_goc.m
%%%%%%%%%%%%%%%%%%%%%%%%%%%%%%%%%%%%%%%%%%%%%%%%%%%%%%%%%%%%%%%%%%%%%%%%%%%
%%%%                                                                  %%%%%
%%%%    IEEE PES Power Grid Library - Optimal Power Flow - v20.04     %%%%%
%%%%          (https://github.com/power-grid-lib/pglib-opf)           %%%%%
%%%%               Benchmark Group - Typical Operations               %%%%%
%%%%                         12 - July - 2020                         %%%%%
%%%%                                                                  %%%%%
%%%%%%%%%%%%%%%%%%%%%%%%%%%%%%%%%%%%%%%%%%%%%%%%%%%%%%%%%%%%%%%%%%%%%%%%%%%
%
%   This is a synthetic 10,480 bus case, developed for use in ARPA-e's Grid
%   Optimization Competition, Challenge 1.
%
%   https://gocompetition.energy.gov/challenges/22/datasets
%
%   Copyright (c) 2020 University of Wisconsin-Madison
%   https://dev.epigrids.discovery.wisc.edu/
%   Licensed under the Creative Commons Attribution 4.0 International license,
%   http://creativecommons.org/licenses/by/4.0/
%
function mpc = pglib_opf_case10480_goc
mpc.version = '2';
mpc.baseMVA = 100.0;

%% bus data
%	bus_i	type	Pd	Qd	Gs	Bs	area	Vm	Va	baseKV	zone	Vmax	Vmin
mpc.bus = [
	50134	 1	 0.0	 0.0	 0.0	 0.0	 1	    1.00000	    0.00000	 345.0	 1	    1.10000	    0.90000;
	50135	 1	 0.0	 0.0	 0.0	 0.0	 1	    1.00000	    0.00000	 345.0	 1	    1.10000	    0.90000;
	50136	 1	 30.0	 6.0	 0.0	 0.0	 1	    1.00000	    0.00000	 345.0	 1	    1.10000	    0.90000;
	50137	 1	 120.0	 30.77	 0.0	 0.0	 1	    1.00000	    0.00000	 345.0	 1	    1.10000	    0.90000;
	50138	 1	 0.0	 0.0	 0.0	 0.0	 1	    1.00000	    0.00000	 345.0	 1	    1.10000	    0.90000;
	50139	 1	 0.0	 0.0	 0.0	 0.0	 1	    1.00000	    0.00000	 345.0	 1	    1.10000	    0.90000;
	50140	 2	 0.0	 0.0	 0.0	 0.0	 1	    1.00000	    0.00000	 138.0	 2138	    1.10000	    0.90000;
	50141	 2	 0.0	 0.0	 0.0	 0.0	 1	    1.00000	    0.00000	 138.0	 2138	    1.10000	    0.90000;
	50142	 1	 0.0	 0.0	 0.0	 0.0	 1	    1.00000	    0.00000	 138.0	 2138	    1.10000	    0.90000;
	50143	 1	 0.0	 0.0	 0.0	 0.0	 1	    1.00000	    0.00000	 138.0	 2138	    1.10000	    0.90000;
	50144	 1	 0.0	 0.0	 0.0	 0.0	 1	    1.00000	    0.00000	 138.0	 2138	    1.10000	    0.90000;
	50145	 2	 0.0	 0.0	 0.0	 -26.9442282942	 1	    1.00000	    0.00000	 138.0	 2138	    1.10000	    0.90000;
	50146	 1	 0.0	 0.0	 0.0	 0.0	 1	    1.00000	    0.00000	 345.0	 1	    1.10000	    0.90000;
	50147	 2	 0.0	 0.0	 0.0	 0.0	 1	    1.00000	    0.00000	 138.0	 2138	    1.10000	    0.90000;
	50148	 1	 0.0	 0.0	 0.0	 0.0	 1	    1.00000	    0.00000	 138.0	 2138	    1.10000	    0.90000;
	50149	 1	 0.0	 0.0	 0.0	 0.0	 1	    1.00000	    0.00000	 138.0	 2138	    1.10000	    0.90000;
	50150	 1	 0.0	 0.0	 0.0	 0.0	 1	    1.00000	    0.00000	 345.0	 1	    1.10000	    0.90000;
	50151	 2	 0.0	 0.0	 0.0	 0.0	 1	    1.00000	    0.00000	 138.0	 2138	    1.10000	    0.90000;
	50152	 2	 0.0	 20.81	 0.0	 0.0	 1	    1.00000	    0.00000	 138.0	 2138	    1.10000	    0.90000;
	50153	 2	 0.0	 0.0	 0.0	 0.0	 1	    1.00000	    0.00000	 69.0	 269	    1.10000	    0.90000;
	50154	 1	 0.0	 0.0	 0.0	 0.0	 1	    1.00000	    0.00000	 138.0	 2138	    1.10000	    0.90000;
	50155	 2	 0.0	 0.0	 0.0	 0.0	 1	    1.00000	    0.00000	 138.0	 2138	    1.10000	    0.90000;
	50156	 2	 0.0	 0.0	 0.0	 100.017332721	 1	    1.00000	    0.00000	 345.0	 2	    1.10000	    0.90000;
	50157	 2	 0.0	 0.0	 0.0	 0.0	 1	    1.00000	    0.00000	 138.0	 2138	    1.10000	    0.90000;
	50158	 1	 0.0	 0.0	 0.0	 0.0	 1	    1.00000	    0.00000	 345.0	 1	    1.10000	    0.90000;
	50159	 2	 0.0	 0.0	 0.0	 0.0	 1	    1.00000	    0.00000	 138.0	 2138	    1.10000	    0.90000;
	50160	 2	 0.0	 0.0	 0.0	 0.0	 1	    1.00000	    0.00000	 345.0	 2	    1.10000	    0.90000;
	50161	 1	 0.0	 0.0	 0.0	 0.0	 1	    1.00000	    0.00000	 138.0	 138	    1.10000	    0.90000;
	50162	 1	 0.0	 0.0	 0.0	 0.0	 1	    1.00000	    0.00000	 69.0	 269	    1.10000	    0.90000;
	50163	 2	 0.0	 0.0	 0.0	 0.0	 1	    1.00000	    0.00000	 69.0	 269	    1.10000	    0.90000;
	50164	 2	 0.0	 0.0	 0.0	 0.0	 1	    1.00000	    0.00000	 69.0	 269	    1.10000	    0.90000;
	50165	 2	 0.0	 0.0	 0.0	 0.0	 1	    1.00000	    0.00000	 138.0	 2138	    1.10000	    0.90000;
	50166	 2	 0.0	 0.0	 0.0	 0.0	 1	    1.00000	    0.00000	 138.0	 2138	    1.10000	    0.90000;
	50167	 1	 0.0	 0.0	 0.0	 0.0	 1	    1.00000	    0.00000	 345.0	 1	    1.10000	    0.90000;
	50168	 2	 0.0	 0.0	 0.0	 0.0	 1	    1.00000	    0.00000	 138.0	 2138	    1.10000	    0.90000;
	50169	 2	 0.0	 0.0	 0.0	 0.0	 1	    1.00000	    0.00000	 69.0	 269	    1.10000	    0.90000;
	50170	 1	 0.0	 0.0	 0.0	 0.0	 1	    1.00000	    0.00000	 138.0	 2138	    1.10000	    0.90000;
	50171	 2	 0.0	 -13.28	 0.0	 0.0	 1	    1.00000	    0.00000	 69.0	 269	    1.10000	    0.90000;
	50172	 2	 0.0	 0.0	 0.0	 0.0	 1	    1.00000	    0.00000	 69.0	 269	    1.10000	    0.90000;
	50173	 1	 0.0	 0.0	 0.0	 0.0	 1	    1.00000	    0.00000	 69.0	 269	    1.10000	    0.90000;
	50175	 1	 0.0	 0.0	 0.0	 0.0	 1	    1.00000	    0.00000	 138.0	 2138	    1.10000	    0.90000;
	50176	 1	 0.0	 0.0	 0.0	 0.0	 1	    1.00000	    0.00000	 345.0	 1	    1.10000	    0.90000;
	50178	 1	 0.0	 0.0	 0.0	 0.0	 1	    1.00000	    0.00000	 138.0	 138	    1.10000	    0.90000;
	50179	 1	 0.0	 0.0	 0.0	 0.0	 1	    1.00000	    0.00000	 138.0	 138	    1.10000	    0.90000;
	50181	 1	 0.0	 0.0	 0.0	 0.0	 1	    1.00000	    0.00000	 345.0	 1	    1.10000	    0.90000;
	50182	 1	 0.0	 0.0	 0.0	 -78.8646398791	 1	    1.00000	    0.00000	 345.0	 1	    1.10000	    0.90000;
	50183	 1	 0.0	 0.0	 0.0	 0.0	 1	    1.00000	    0.00000	 345.0	 1	    1.10000	    0.90000;
	50185	 1	 0.0	 0.0	 0.0	 0.0	 1	    1.00000	    0.00000	 138.0	 2138	    1.10000	    0.90000;
	50186	 2	 0.0	 21.63	 0.0	 0.0	 1	    1.00000	    0.00000	 345.0	 2	    1.10000	    0.90000;
	50187	 2	 0.0	 0.0	 0.0	 -202.46579278	 1	    1.00000	    0.00000	 345.0	 2	    1.10000	    0.90000;
	50188	 1	 0.0	 0.0	 0.0	 0.0	 1	    1.00000	    0.00000	 138.0	 138	    1.10000	    0.90000;
	50189	 2	 0.0	 0.0	 0.0	 0.0	 1	    1.00000	    0.00000	 138.0	 2138	    1.10000	    0.90000;
	50190	 1	 0.0	 0.0	 0.0	 0.0	 1	    1.00000	    0.00000	 138.0	 2138	    1.10000	    0.90000;
	50191	 1	 0.0	 0.0	 0.0	 0.0	 1	    1.00000	    0.00000	 138.0	 2138	    1.10000	    0.90000;
	50192	 2	 0.0	 0.0	 0.0	 0.0	 1	    1.00000	    0.00000	 345.0	 2	    1.10000	    0.90000;
	50193	 2	 0.0	 0.0	 0.0	 0.0	 1	    1.00000	    0.00000	 345.0	 2	    1.10000	    0.90000;
	50194	 2	 0.0	 0.0	 0.0	 0.0	 1	    1.00000	    0.00000	 138.0	 2138	    1.10000	    0.90000;
	50195	 1	 0.0	 0.0	 0.0	 0.0	 1	    1.00000	    0.00000	 69.0	 269	    1.10000	    0.90000;
	50196	 1	 0.0	 0.0	 0.0	 0.0	 1	    1.00000	    0.00000	 138.0	 2138	    1.10000	    0.90000;
	50197	 2	 0.0	 0.0	 0.0	 0.0	 1	    1.00000	    0.00000	 138.0	 2138	    1.10000	    0.90000;
	50200	 2	 0.0	 0.0	 0.0	 0.0	 1	    1.00000	    0.00000	 69.0	 269	    1.10000	    0.90000;
	50201	 1	 200.0	 300.0	 0.0	 97.9996893142	 1	    1.00000	    0.00000	 345.0	 1	    1.10000	    0.90000;
	50202	 1	 0.0	 0.0	 0.0	 0.0	 1	    1.00000	    0.00000	 138.0	 2138	    1.10000	    0.90000;
	50203	 1	 0.0	 0.0	 0.0	 0.0	 1	    1.00000	    0.00000	 345.0	 2	    1.10000	    0.90000;
	50205	 1	 0.0	 0.0	 0.0	 0.0	 1	    1.00000	    0.00000	 138.0	 2138	    1.10000	    0.90000;
	50206	 1	 0.0	 0.0	 0.0	 0.0	 1	    1.00000	    0.00000	 345.0	 1	    1.10000	    0.90000;
	50207	 2	 0.0	 0.0	 0.0	 0.0	 1	    1.00000	    0.00000	 345.0	 2	    1.10000	    0.90000;
	50208	 2	 0.0	 0.0	 0.0	 0.0	 1	    1.00000	    0.00000	 345.0	 2	    1.10000	    0.90000;
	50209	 2	 0.0	 0.0	 0.0	 0.0	 1	    1.00000	    0.00000	 345.0	 2	    1.10000	    0.90000;
	50210	 1	 0.0	 0.0	 0.0	 0.0	 1	    1.00000	    0.00000	 345.0	 1	    1.10000	    0.90000;
	50211	 1	 0.0	 0.0	 0.0	 0.0	 1	    1.00000	    0.00000	 138.0	 2138	    1.10000	    0.90000;
	50212	 2	 0.0	 0.0	 0.0	 0.0	 1	    1.00000	    0.00000	 69.0	 269	    1.10000	    0.90000;
	50213	 2	 0.0	 0.0	 0.0	 0.0	 1	    1.00000	    0.00000	 138.0	 2138	    1.10000	    0.90000;
	50214	 1	 0.0	 0.0	 0.0	 0.0	 1	    1.00000	    0.00000	 345.0	 1	    1.10000	    0.90000;
	50215	 2	 0.0	 0.0	 0.0	 0.0	 1	    1.00000	    0.00000	 138.0	 2138	    1.10000	    0.90000;
	50216	 2	 0.0	 0.0	 0.0	 0.0	 1	    1.00000	    0.00000	 138.0	 2138	    1.10000	    0.90000;
	50217	 1	 0.0	 0.0	 0.0	 0.0	 1	    1.00000	    0.00000	 69.0	 269	    1.10000	    0.90000;
	50218	 1	 0.0	 20.31	 0.0	 0.0	 1	    1.00000	    0.00000	 138.0	 138	    1.10000	    0.90000;
	50219	 2	 0.0	 0.0	 0.0	 0.0	 1	    1.00000	    0.00000	 138.0	 2138	    1.10000	    0.90000;
	50220	 2	 0.0	 0.0	 0.0	 0.0	 1	    1.00000	    0.00000	 138.0	 2138	    1.10000	    0.90000;
	50221	 2	 0.0	 0.0	 0.0	 0.0	 1	    1.00000	    0.00000	 138.0	 2138	    1.10000	    0.90000;
	50222	 2	 100.0	 75.0	 0.0	 0.0	 1	    1.00000	    0.00000	 345.0	 2	    1.10000	    0.90000;
	50223	 1	 0.0	 0.0	 0.0	 0.0	 1	    1.00000	    0.00000	 345.0	 1	    1.10000	    0.90000;
	50224	 2	 0.0	 0.0	 0.0	 0.0	 1	    1.00000	    0.00000	 69.0	 269	    1.10000	    0.90000;
	50225	 2	 0.0	 0.0	 0.0	 0.0	 1	    1.00000	    0.00000	 138.0	 2138	    1.10000	    0.90000;
	50226	 2	 0.0	 -20.0	 0.0	 0.0	 1	    1.00000	    0.00000	 69.0	 269	    1.10000	    0.90000;
	50227	 2	 0.0	 0.0	 0.0	 0.0	 1	    1.00000	    0.00000	 69.0	 269	    1.10000	    0.90000;
	50228	 2	 0.0	 0.0	 0.0	 0.0	 1	    1.00000	    0.00000	 69.0	 269	    1.10000	    0.90000;
	50229	 1	 0.0	 0.0	 0.0	 0.0	 1	    1.00000	    0.00000	 345.0	 1	    1.10000	    0.90000;
	50230	 2	 0.0	 0.0	 0.0	 0.0	 1	    1.00000	    0.00000	 345.0	 2	    1.10000	    0.90000;
	50231	 1	 0.0	 0.0	 0.0	 0.0	 1	    1.00000	    0.00000	 138.0	 138	    1.10000	    0.90000;
	50232	 2	 0.0	 0.0	 0.0	 0.0	 1	    1.00000	    0.00000	 138.0	 2138	    1.10000	    0.90000;
	50233	 2	 0.0	 0.0	 0.0	 0.0	 1	    1.00000	    0.00000	 345.0	 2	    1.10000	    0.90000;
	50234	 2	 0.0	 -5.0	 0.0	 0.0	 1	    1.00000	    0.00000	 69.0	 269	    1.10000	    0.90000;
	50235	 1	 0.0	 0.0	 0.0	 0.0	 1	    1.00000	    0.00000	 138.0	 2138	    1.10000	    0.90000;
	50236	 1	 0.0	 0.0	 0.0	 0.0	 1	    1.00000	    0.00000	 345.0	 1	    1.10000	    0.90000;
	50237	 1	 0.0	 0.0	 0.0	 0.0	 1	    1.00000	    0.00000	 345.0	 1	    1.10000	    0.90000;
	50238	 2	 0.0	 0.0	 0.0	 0.0	 1	    1.00000	    0.00000	 345.0	 2	    1.10000	    0.90000;
	50239	 2	 0.0	 0.0	 0.0	 0.0	 1	    1.00000	    0.00000	 345.0	 2	    1.10000	    0.90000;
	50240	 1	 0.0	 0.0	 0.0	 0.0	 1	    1.00000	    0.00000	 345.0	 1	    1.10000	    0.90000;
	50241	 2	 0.0	 0.0	 0.0	 0.0	 1	    1.00000	    0.00000	 345.0	 2	    1.10000	    0.90000;
	50242	 1	 0.0	 0.0	 0.0	 0.0	 1	    1.00000	    0.00000	 230.0	 1	    1.10000	    0.90000;
	50243	 2	 0.0	 0.0	 0.0	 0.0	 1	    1.00000	    0.00000	 345.0	 2	    1.10000	    0.90000;
	50244	 2	 0.0	 0.0	 0.0	 0.0	 1	    1.00000	    0.00000	 345.0	 2	    1.10000	    0.90000;
	50245	 2	 0.0	 0.0	 0.0	 0.0	 1	    1.00000	    0.00000	 138.0	 2138	    1.10000	    0.90000;
	50246	 2	 0.0	 0.0	 0.0	 0.0	 1	    1.00000	    0.00000	 138.0	 2138	    1.10000	    0.90000;
	50247	 1	 0.0	 0.0	 0.0	 0.0	 1	    1.00000	    0.00000	 345.0	 1	    1.10000	    0.90000;
	50248	 2	 0.0	 0.0	 0.0	 0.0	 1	    1.00000	    0.00000	 345.0	 2	    1.10000	    0.90000;
	50249	 1	 0.0	 0.0	 0.0	 0.0	 1	    1.00000	    0.00000	 345.0	 1	    1.10000	    0.90000;
	50250	 1	 0.0	 0.0	 0.0	 0.0	 1	    1.00000	    0.00000	 345.0	 1	    1.10000	    0.90000;
	50251	 1	 0.0	 0.0	 0.0	 0.0	 1	    1.00000	    0.00000	 345.0	 1	    1.10000	    0.90000;
	50252	 2	 0.0	 0.0	 0.0	 0.0	 1	    1.00000	    0.00000	 138.0	 2138	    1.10000	    0.90000;
	50253	 2	 0.0	 0.0	 0.0	 0.0	 1	    1.00000	    0.00000	 138.0	 2138	    1.10000	    0.90000;
	50254	 2	 0.0	 0.0	 0.0	 0.0	 1	    1.00000	    0.00000	 138.0	 2138	    1.10000	    0.90000;
	50256	 2	 0.0	 0.0	 0.0	 0.0	 1	    1.00000	    0.00000	 138.0	 2138	    1.10000	    0.90000;
	50257	 2	 0.0	 0.0	 0.0	 0.0	 1	    1.00000	    0.00000	 345.0	 2	    1.10000	    0.90000;
	50258	 2	 0.0	 0.0	 0.0	 0.0	 1	    1.00000	    0.00000	 230.0	 2	    1.10000	    0.90000;
	50259	 2	 0.0	 0.0	 0.0	 0.0	 1	    1.00000	    0.00000	 138.0	 2138	    1.10000	    0.90000;
	50260	 2	 0.0	 0.0	 0.0	 0.0	 1	    1.00000	    0.00000	 138.0	 2138	    1.10000	    0.90000;
	50261	 2	 0.0	 0.0	 0.0	 0.0	 1	    1.00000	    0.00000	 230.0	 2	    1.10000	    0.90000;
	50262	 2	 0.0	 0.0	 0.0	 0.0	 1	    1.00000	    0.00000	 138.0	 2138	    1.10000	    0.90000;
	50263	 1	 0.0	 0.0	 0.0	 0.0	 1	    1.00000	    0.00000	 345.0	 1	    1.10000	    0.90000;
	50264	 2	 0.0	 0.0	 0.0	 0.0	 1	    1.00000	    0.00000	 138.0	 2138	    1.10000	    0.90000;
	50265	 2	 0.0	 0.0	 0.0	 0.0	 1	    1.00000	    0.00000	 138.0	 2138	    1.10000	    0.90000;
	50266	 1	 0.0	 0.0	 0.0	 0.0	 1	    1.00000	    0.00000	 345.0	 1	    1.10000	    0.90000;
	50267	 2	 0.0	 0.0	 0.0	 0.0	 1	    1.00000	    0.00000	 138.0	 2138	    1.10000	    0.90000;
	50268	 1	 0.0	 0.0	 0.0	 0.0	 1	    1.00000	    0.00000	 138.0	 138	    1.10000	    0.90000;
	50269	 1	 0.0	 0.0	 0.0	 0.0	 1	    1.00000	    0.00000	 345.0	 1	    1.10000	    0.90000;
	50270	 1	 0.0	 0.0	 0.0	 0.0	 1	    1.00000	    0.00000	 345.0	 1	    1.10000	    0.90000;
	50271	 1	 100.0	 91.45	 0.0	 0.0	 1	    1.00000	    0.00000	 345.0	 1	    1.10000	    0.90000;
	50272	 2	 0.0	 0.0	 0.0	 0.0	 1	    1.00000	    0.00000	 138.0	 2138	    1.10000	    0.90000;
	50273	 2	 0.0	 0.0	 0.0	 0.0	 1	    1.00000	    0.00000	 138.0	 2138	    1.10000	    0.90000;
	50274	 2	 0.0	 0.0	 0.0	 0.0	 1	    1.00000	    0.00000	 69.0	 269	    1.10000	    0.90000;
	50275	 1	 0.0	 0.0	 0.0	 0.0	 1	    1.00000	    0.00000	 230.0	 1	    1.10000	    0.90000;
	50276	 1	 0.0	 0.0	 0.0	 0.0	 1	    1.00000	    0.00000	 230.0	 1	    1.10000	    0.90000;
	50277	 2	 0.0	 0.0	 0.0	 0.0	 1	    1.00000	    0.00000	 138.0	 2138	    1.10000	    0.90000;
	50278	 2	 0.0	 0.0	 0.0	 0.0	 1	    1.00000	    0.00000	 69.0	 269	    1.10000	    0.90000;
	50279	 2	 0.0	 0.0	 0.0	 0.0	 1	    1.00000	    0.00000	 69.0	 269	    1.10000	    0.90000;
	50280	 2	 0.0	 0.0	 0.0	 0.0	 1	    1.00000	    0.00000	 138.0	 2138	    1.10000	    0.90000;
	50281	 2	 0.0	 0.0	 0.0	 0.0	 1	    1.00000	    0.00000	 138.0	 2138	    1.10000	    0.90000;
	50282	 2	 0.0	 0.0	 0.0	 0.0	 1	    1.00000	    0.00000	 69.0	 269	    1.10000	    0.90000;
	50283	 2	 0.0	 0.0	 0.0	 0.0	 1	    1.00000	    0.00000	 138.0	 2138	    1.10000	    0.90000;
	50284	 1	 0.0	 0.0	 0.0	 0.0	 1	    1.00000	    0.00000	 345.0	 1	    1.10000	    0.90000;
	50285	 1	 0.0	 0.0	 0.0	 0.0	 1	    1.00000	    0.00000	 138.0	 138	    1.10000	    0.90000;
	50286	 1	 0.0	 0.0	 0.0	 0.0	 1	    1.00000	    0.00000	 138.0	 2138	    1.10000	    0.90000;
	50287	 2	 0.0	 0.0	 0.0	 0.0	 1	    1.00000	    0.00000	 345.0	 2	    1.10000	    0.90000;
	50288	 1	 0.0	 0.0	 0.0	 0.0	 1	    1.00000	    0.00000	 345.0	 1	    1.10000	    0.90000;
	50289	 1	 0.0	 0.0	 0.0	 0.0	 1	    1.00000	    0.00000	 138.0	 138	    1.10000	    0.90000;
	50290	 2	 0.0	 0.0	 0.0	 0.0	 1	    1.00000	    0.00000	 138.0	 2138	    1.10000	    0.90000;
	50291	 2	 50.0	 150.0	 0.0	 -252.950670921	 1	    1.00000	    0.00000	 345.0	 2	    1.10000	    0.90000;
	50292	 1	 0.0	 0.0	 0.0	 0.0	 1	    1.00000	    0.00000	 138.0	 2138	    1.10000	    0.90000;
	50293	 2	 0.0	 0.0	 0.0	 0.0	 1	    1.00000	    0.00000	 138.0	 2138	    1.10000	    0.90000;
	50294	 2	 0.0	 0.0	 0.0	 0.0	 1	    1.00000	    0.00000	 345.0	 2	    1.10000	    0.90000;
	50295	 1	 0.0	 0.0	 0.0	 0.0	 1	    1.00000	    0.00000	 345.0	 1	    1.10000	    0.90000;
	50296	 2	 0.0	 0.0	 0.0	 0.0	 1	    1.00000	    0.00000	 138.0	 2138	    1.10000	    0.90000;
	50297	 2	 0.0	 0.0	 0.0	 0.0	 1	    1.00000	    0.00000	 69.0	 269	    1.10000	    0.90000;
	50298	 2	 0.0	 0.0	 0.0	 0.0	 1	    1.00000	    0.00000	 69.0	 269	    1.10000	    0.90000;
	50299	 2	 0.0	 0.0	 0.0	 0.0	 1	    1.00000	    0.00000	 345.0	 2	    1.10000	    0.90000;
	50300	 2	 100.0	 21.63	 0.0	 0.0	 1	    1.00000	    0.00000	 345.0	 2	    1.10000	    0.90000;
	50301	 2	 0.0	 0.0	 0.0	 0.0	 1	    1.00000	    0.00000	 138.0	 2138	    1.10000	    0.90000;
	50302	 2	 0.0	 0.0	 0.0	 0.0	 1	    1.00000	    0.00000	 69.0	 269	    1.10000	    0.90000;
	50303	 2	 0.0	 0.0	 0.0	 0.0	 1	    1.00000	    0.00000	 69.0	 269	    1.10000	    0.90000;
	50304	 2	 0.0	 0.0	 0.0	 0.0	 1	    1.00000	    0.00000	 345.0	 2	    1.10000	    0.90000;
	50305	 2	 0.0	 0.0	 0.0	 0.0	 1	    1.00000	    0.00000	 138.0	 2138	    1.10000	    0.90000;
	50306	 2	 0.0	 0.0	 0.0	 0.0	 1	    1.00000	    0.00000	 69.0	 269	    1.10000	    0.90000;
	50307	 1	 0.0	 0.0	 0.0	 -255.977905721	 1	    1.00000	    0.00000	 345.0	 1	    1.10000	    0.90000;
	50308	 2	 0.0	 0.0	 0.0	 0.0	 1	    1.00000	    0.00000	 69.0	 269	    1.10000	    0.90000;
	50309	 1	 0.0	 0.0	 0.0	 0.0	 1	    1.00000	    0.00000	 69.0	 269	    1.10000	    0.90000;
	50310	 2	 0.0	 0.0	 0.0	 0.0	 1	    1.00000	    0.00000	 345.0	 2	    1.10000	    0.90000;
	50311	 2	 0.0	 0.0	 0.0	 0.0	 1	    1.00000	    0.00000	 345.0	 2	    1.10000	    0.90000;
	50312	 2	 0.0	 0.0	 0.0	 0.0	 1	    1.00000	    0.00000	 345.0	 2	    1.10000	    0.90000;
	50313	 2	 0.0	 0.0	 0.0	 0.0	 1	    1.00000	    0.00000	 345.0	 2	    1.10000	    0.90000;
	50314	 2	 0.0	 0.0	 0.0	 0.0	 1	    1.00000	    0.00000	 345.0	 2	    1.10000	    0.90000;
	50315	 1	 0.0	 0.0	 0.0	 0.0	 1	    1.00000	    0.00000	 345.0	 1	    1.10000	    0.90000;
	50316	 1	 0.0	 0.0	 0.0	 0.0	 1	    1.00000	    0.00000	 345.0	 1	    1.10000	    0.90000;
	50317	 2	 0.0	 0.0	 0.0	 0.0	 1	    1.00000	    0.00000	 345.0	 2	    1.10000	    0.90000;
	50318	 1	 0.0	 0.0	 0.0	 0.0	 1	    1.00000	    0.00000	 345.0	 1	    1.10000	    0.90000;
	50319	 2	 0.0	 0.0	 0.0	 0.0	 1	    1.00000	    0.00000	 138.0	 2138	    1.10000	    0.90000;
	50320	 3	 0.0	 0.0	 0.0	 0.0	 1	    1.00000	    0.00000	 345.0	 2	    1.10000	    0.90000;
	50321	 1	 0.0	 0.0	 0.0	 0.0	 1	    1.00000	    0.00000	 230.0	 1	    1.10000	    0.90000;
	50322	 1	 0.0	 0.0	 0.0	 0.0	 1	    1.00000	    0.00000	 345.0	 1	    1.10000	    0.90000;
	50323	 1	 0.0	 0.0	 0.0	 0.0	 1	    1.00000	    0.00000	 345.0	 1	    1.10000	    0.90000;
	50324	 1	 0.0	 0.0	 0.0	 0.0	 1	    1.00000	    0.00000	 345.0	 1	    1.10000	    0.90000;
	50325	 1	 0.0	 0.0	 0.0	 0.0	 1	    1.00000	    0.00000	 345.0	 1	    1.10000	    0.90000;
	50326	 2	 150.0	 33.0	 0.0	 0.0	 1	    1.00000	    0.00000	 345.0	 1	    1.10000	    0.90000;
	50327	 1	 0.0	 0.0	 0.0	 0.0	 1	    1.00000	    0.00000	 345.0	 1	    1.10000	    0.90000;
	50328	 1	 0.0	 0.0	 0.0	 0.0	 1	    1.00000	    0.00000	 345.0	 1	    1.10000	    0.90000;
	50329	 2	 0.0	 0.0	 0.0	 0.0	 1	    1.00000	    0.00000	 345.0	 2	    1.10000	    0.90000;
	50330	 1	 0.0	 0.0	 0.0	 0.0	 1	    1.00000	    0.00000	 345.0	 1	    1.10000	    0.90000;
	50331	 1	 0.0	 0.0	 0.0	 0.0	 1	    1.00000	    0.00000	 345.0	 1	    1.10000	    0.90000;
	50332	 2	 0.0	 0.0	 0.0	 0.0	 1	    1.00000	    0.00000	 138.0	 2138	    1.10000	    0.90000;
	50333	 1	 0.0	 0.0	 0.0	 0.0	 1	    1.00000	    0.00000	 345.0	 1	    1.10000	    0.90000;
	50334	 2	 0.0	 0.0	 0.0	 -180.249216316	 1	    1.00000	    0.00000	 345.0	 2	    1.10000	    0.90000;
	50335	 2	 0.0	 0.0	 0.0	 0.0	 1	    1.00000	    0.00000	 138.0	 2138	    1.10000	    0.90000;
	50336	 1	 0.0	 0.0	 0.0	 0.0	 1	    1.00000	    0.00000	 345.0	 1	    1.10000	    0.90000;
	50337	 1	 120.0	 40.0	 0.0	 0.0	 1	    1.00000	    0.00000	 345.0	 1	    1.10000	    0.90000;
	50338	 1	 0.0	 0.0	 0.0	 0.0	 1	    1.00000	    0.00000	 345.0	 1	    1.10000	    0.90000;
	50339	 2	 0.0	 0.0	 0.0	 0.0	 1	    1.00000	    0.00000	 345.0	 2	    1.10000	    0.90000;
	50340	 1	 0.0	 0.0	 0.0	 0.0	 1	    1.00000	    0.00000	 345.0	 1	    1.10000	    0.90000;
	50341	 2	 0.0	 0.0	 0.0	 0.0	 1	    1.00000	    0.00000	 138.0	 2138	    1.10000	    0.90000;
...
];

%% generator data
%	bus	Pg	Qg	Qmax	Qmin	Vg	mBase	status	Pmax	Pmin
mpc.gen = [
	50140	 17.0	 0.0	 66.1	 -66.1	 1.0	 100.0	 1	 34.0	 0.0;
	50141	 89.5	 21.3	 92.3	 -49.7	 1.0	 100.0	 1	 149.0	 30.0;
	50145	 49.5	 6.8165	 57.333	 -43.7	 1.0	 100.0	 1	 99.0	 0.0;
	50147	 48.0	 0.0	 42.3	 -42.3	 1.0	 100.0	 1	 96.0	 0.0;
	50147	 22.0	 0.0	 46.3	 -46.3	 1.0	 100.0	 1	 44.0	 0.0;
	50151	 47.5	 6.45	 41.2	 -28.3	 1.0	 100.0	 1	 85.0	 10.0;
	50152	 20.52	 28.592	 66.884	 -9.7	 1.0	 100.0	 1	 29.0	 12.04;
	50152	 20.52	 28.592	 66.884	 -9.7	 1.0	 100.0	 1	 29.0	 12.04;
	50153	 52.3	 11.7	 50.6	 -27.2	 1.0	 100.0	 1	 81.6	 23.0;
	50155	 57.75	 8.95	 43.6	 -25.7	 1.0	 100.0	 1	 77.0	 38.5;
	50156	 6.3	 1.75	 6.3	 -2.8	 1.0	 100.0	 1	 8.4	 4.2;
	50156	 6.3	 1.75	 6.3	 -2.8	 1.0	 100.0	 1	 8.4	 4.2;
	50156	 6.3	 1.75	 6.3	 -2.8	 1.0	 100.0	 1	 8.4	 4.2;
	50157	 46.6	 5.4	 34.5	 -23.7	 1.0	 100.0	 1	 71.2	 22.0;
	50157	 46.6	 5.4	 34.5	 -23.7	 1.0	 100.0	 1	 71.2	 22.0;
	50157	 47.2	 5.5	 35.1	 -24.1	 1.0	 100.0	 1	 72.4	 22.0;
	50159	 44.33	 8.35	 39.7	 -23.0	 1.0	 100.0	 1	 69.0	 19.66;
	50160	 33.5	 7.75	 33.5	 -18.0	 1.0	 100.0	 1	 54.0	 13.0;
	50160	 33.5	 7.75	 33.5	 -18.0	 1.0	 100.0	 1	 54.0	 13.0;
	50160	 33.5	 7.75	 33.5	 -18.0	 1.0	 100.0	 1	 54.0	 13.0;
	50160	 33.5	 7.75	 33.5	 -18.0	 1.0	 100.0	 1	 54.0	 13.0;
	50160	 140.7	 24.55	 106.2	 -57.1	 1.0	 100.0	 1	 171.4	 110.0;
	50160	 140.7	 24.55	 106.2	 -57.1	 1.0	 100.0	 1	 171.4	 110.0;
	50160	 140.7	 24.55	 106.2	 -57.1	 1.0	 100.0	 1	 171.4	 110.0;
	50163	 25.0	 0.0	 19.8	 -19.8	 1.0	 100.0	 1	 50.0	 0.0;
	50164	 25.0	 0.0	 19.8	 -19.8	 1.0	 100.0	 1	 50.0	 0.0;
	50165	 269.0	 30.45	 195.2	 -134.3	 1.0	 100.0	 1	 403.0	 135.0;
	50166	 24.0	 0.0	 19.0	 -19.0	 1.0	 100.0	 1	 48.0	 0.0;
	50166	 11.5	 0.0	 44.3	 -44.3	 1.0	 100.0	 1	 23.0	 0.0;
	50168	 28.35	 9.1	 32.8	 -14.6	 1.0	 100.0	 1	 43.7	 13.0;
	50169	 24.5	 4.705	 22.71	 -13.3	 1.0	 100.0	 1	 40.0	 9.0;
	50171	 30.45	 3.5	 37.0	 -30.0	 1.0	 100.0	 1	 38.9	 22.0;
	50172	 15.75	 33.9105	 76.621	 -8.8	 1.0	 100.0	 1	 26.5	 5.0;
	50186	 90.0	 13.6	 87.2	 -60.0	 1.0	 100.0	 1	 180.0	 0.0;
	50187	 33.5	 0.0	 70.1	 -70.1	 1.0	 100.0	 1	 67.0	 0.0;
	50189	 17.0	 292.25	 650.0	 -65.5	 1.0	 100.0	 1	 34.0	 0.0;
	50192	 16.0	 -10.5845	 37.8	 -58.969	 1.0	 100.0	 1	 32.0	 0.0;
	50192	 16.0	 -10.5845	 37.8	 -58.969	 1.0	 100.0	 1	 32.0	 0.0;
	50192	 16.0	 -10.5845	 42.1	 -63.269	 1.0	 100.0	 1	 32.0	 0.0;
	50192	 16.0	 -10.5845	 42.1	 -63.269	 1.0	 100.0	 1	 32.0	 0.0;
	50192	 16.0	 -10.5845	 42.1	 -63.269	 1.0	 100.0	 1	 32.0	 0.0;
	50193	 21.5	 0.0	 45.2	 -45.2	 1.0	 100.0	 1	 43.0	 0.0;
	50194	 31.2	 0.927	 26.554	 -24.7	 1.0	 100.0	 1	 62.4	 0.0;
	50197	 32.0	 10.54	 40.68	 -19.6	 1.0	 100.0	 1	 64.0	 0.0;
	50200	 20.25	 3.432	 22.864	 -16.0	 1.0	 100.0	 1	 40.5	 0.0;
	50207	 507.65	 51.45	 330.0	 -227.1	 1.0	 100.0	 1	 681.3	 334.0;
	50207	 507.65	 51.45	 330.0	 -227.1	 1.0	 100.0	 1	 681.3	 334.0;
	50208	 529.0	 55.7	 357.4	 -246.0	 1.0	 100.0	 1	 738.0	 320.0;
	50209	 488.0	 71.9	 311.1	 -167.3	 1.0	 100.0	 1	 502.0	 474.0;
	50212	 40.5	 0.0	 32.0	 -32.0	 1.0	 100.0	 1	 81.0	 0.0;
	50213	 49.45	 13.45	 58.2	 -31.3	 1.0	 100.0	 1	 93.9	 5.0;
	50213	 40.8	 11.0	 47.5	 -25.5	 1.0	 100.0	 1	 76.6	 5.0;
	50213	 40.8	 11.0	 47.5	 -25.5	 1.0	 100.0	 1	 76.6	 5.0;
	50215	 138.8	 118.7505	 310.001	 -72.5	 1.0	 100.0	 1	 217.6	 60.0;
	50216	 41.2	 5.5	 35.1	 -24.1	 1.0	 100.0	 1	 72.4	 10.0;
	50216	 72.7	 19.9	 71.6	 -31.8	 1.0	 100.0	 1	 95.4	 50.0;
	50216	 57.7	 19.9	 71.6	 -31.8	 1.0	 100.0	 1	 95.4	 20.0;
	50219	 34.2	 18.117	 57.334	 -21.1	 1.0	 100.0	 1	 63.4	 5.0;
	50219	 34.2	 18.117	 57.334	 -21.1	 1.0	 100.0	 1	 63.4	 5.0;
	50219	 38.2	 16.817	 51.734	 -18.1	 1.0	 100.0	 1	 54.4	 22.0;
	50219	 14.95	 12.567	 33.434	 -8.3	 1.0	 100.0	 1	 24.9	 5.0;
	50220	 19.1	 4.3115	 18.023	 -9.4	 1.0	 100.0	 1	 28.2	 10.0;
	50220	 40.25	 10.8115	 41.823	 -20.2	 1.0	 100.0	 1	 60.5	 20.0;
	50220	 40.25	 10.8115	 41.823	 -20.2	 1.0	 100.0	 1	 60.5	 20.0;
	50220	 40.25	 10.8115	 41.823	 -20.2	 1.0	 100.0	 1	 60.5	 20.0;
	50221	 30.0	 5.531	 34.762	 -23.7	 1.0	 100.0	 1	 60.0	 0.0;
	50222	 29.7	 -27.4195	 23.5	 -78.339	 1.0	 100.0	 1	 59.4	 0.0;
	50224	 28.85	 4.3	 27.5	 -18.9	 1.0	 100.0	 1	 56.7	 1.0;
	50225	 38.7	 19.2855	 57.071	 -18.5	 1.0	 100.0	 1	 55.4	 22.0;
	50225	 38.7	 19.2855	 57.071	 -18.5	 1.0	 100.0	 1	 55.4	 22.0;
	50225	 44.45	 23.5855	 66.771	 -19.6	 1.0	 100.0	 1	 58.9	 30.0;
	50225	 41.45	 23.5855	 66.771	 -19.6	 1.0	 100.0	 1	 58.9	 24.0;
	50225	 79.8	 30.2355	 95.671	 -35.2	 1.0	 100.0	 1	 105.6	 54.0;
	50226	 27.5	 16.909	 50.218	 -16.4	 1.0	 100.0	 1	 50.0	 5.0;
	50227	 7.6	 1.6065	 8.213	 -5.0	 1.0	 100.0	 1	 15.2	 0.0;
	50227	 7.6	 1.6065	 8.213	 -5.0	 1.0	 100.0	 1	 15.2	 0.0;
	50228	 6.55	 9.7265	 23.803	 -4.35	 1.0	 100.0	 1	 13.1	 0.0;
	50228	 6.55	 9.7265	 23.803	 -4.35	 1.0	 100.0	 1	 13.1	 0.0;
	50230	 12.75	 34.8205	 77.141	 -7.5	 1.0	 100.0	 1	 22.5	 3.0;
	50232	 13.5	 68.1045	 143.509	 -7.3	 1.0	 100.0	 1	 22.0	 5.0;
	50233	 14.5	 32.547	 72.394	 -7.3	 1.0	 100.0	 1	 22.0	 7.0;
	50234	 1.3625	 0.569	 2.05	 -0.912	 1.0	 100.0	 1	 2.725	 0.0;
	50234	 1.3625	 0.569	 2.05	 -0.912	 1.0	 100.0	 1	 2.725	 0.0;
	50234	 1.3625	 0.569	 2.05	 -0.912	 1.0	 100.0	 1	 2.725	 0.0;
	50238	 108.125	 20.15	 98.0	 -57.7	 1.0	 100.0	 1	 173.0	 43.25;
	50238	 386.0	 43.15	 277.0	 -190.7	 1.0	 100.0	 1	 572.0	 200.0;
	50239	 384.5	 42.95	 275.6	 -189.7	 1.0	 100.0	 1	 569.0	 200.0;
	50241	 155.0	 24.35	 105.4	 -56.7	 1.0	 100.0	 1	 170.0	 140.0;
	50241	 136.75	 25.55	 110.6	 -59.5	 1.0	 100.0	 1	 178.5	 95.0;
	50241	 136.75	 25.55	 110.6	 -59.5	 1.0	 100.0	 1	 178.5	 95.0;
	50241	 339.0	 35.7	 229.1	 -157.7	 1.0	 100.0	 1	 473.0	 205.0;
	50241	 316.5	 35.7	 229.1	 -157.7	 1.0	 100.0	 1	 473.0	 160.0;
	50243	 154.75	 22.8	 98.8	 -53.2	 1.0	 100.0	 1	 159.5	 150.0;
	50243	 154.75	 22.8	 98.8	 -53.2	 1.0	 100.0	 1	 159.5	 150.0;
	50243	 144.2	 28.5	 123.3	 -66.3	 1.0	 100.0	 1	 198.9	 89.5;
	50243	 144.2	 28.5	 123.3	 -66.3	 1.0	 100.0	 1	 198.9	 89.5;
	50244	 126.95	 13.9	 89.1	 -61.3	 1.0	 100.0	 1	 183.9	 70.0;
	50244	 126.95	 13.9	 89.1	 -61.3	 1.0	 100.0	 1	 183.9	 70.0;
	50244	 126.95	 13.9	 89.1	 -61.3	 1.0	 100.0	 1	 183.9	 70.0;
	50244	 126.95	 13.9	 89.1	 -61.3	 1.0	 100.0	 1	 183.9	 70.0;
	50244	 193.6	 23.95	 153.6	 -105.7	 1.0	 100.0	 1	 317.2	 70.0;
	50244	 176.1	 23.95	 153.6	 -105.7	 1.0	 100.0	 1	 317.2	 35.0;
	50245	 152.15	 25.65	 111.1	 -59.8	 1.0	 100.0	 1	 179.3	 125.0;
	50245	 152.15	 25.65	 111.1	 -59.8	 1.0	 100.0	 1	 179.3	 125.0;
	50245	 152.15	 25.65	 111.1	 -59.8	 1.0	 100.0	 1	 179.3	 125.0;
	50245	 97.0	 17.45	 75.6	 -40.7	 1.0	 100.0	 1	 122.0	 72.0;
	50245	 97.0	 17.45	 75.6	 -40.7	 1.0	 100.0	 1	 122.0	 72.0;
	50245	 97.0	 17.45	 75.6	 -40.7	 1.0	 100.0	 1	 122.0	 72.0;
	50246	 135.1	 25.25	 109.4	 -58.9	 1.0	 100.0	 1	 176.6	 93.6;
	50246	 135.1	 25.25	 109.4	 -58.9	 1.0	 100.0	 1	 176.6	 93.6;
	50246	 143.62	 28.4	 122.8	 -66.0	 1.0	 100.0	 1	 198.1	 89.14;
	50248	 143.0	 25.2	 109.1	 -58.7	 1.0	 100.0	 1	 176.0	 110.0;
	50248	 143.0	 25.2	 109.1	 -58.7	 1.0	 100.0	 1	 176.0	 110.0;
	50248	 143.0	 25.2	 109.1	 -58.7	 1.0	 100.0	 1	 176.0	 110.0;
	50248	 143.0	 25.2	 109.1	 -58.7	 1.0	 100.0	 1	 176.0	 110.0;
	50248	 157.5	 36.5	 158.0	 -85.0	 1.0	 100.0	 1	 255.0	 60.0;
	50248	 157.5	 36.5	 158.0	 -85.0	 1.0	 100.0	 1	 255.0	 60.0;
	50252	 27.0	 0.0	 54.2	 -54.2	 1.0	 100.0	 1	 54.0	 0.0;
	50253	 36.0	 0.0	 52.9	 -52.9	 1.0	 100.0	 1	 72.0	 0.0;
	50254	 27.5	 0.0	 44.6	 -44.6	 1.0	 100.0	 1	 55.0	 0.0;
	50256	 49.5	 0.0	 43.7	 -43.7	 1.0	 100.0	 1	 99.0	 0.0;
	50257	 49.6	 -4.3005	 43.7	 -52.301	 1.0	 100.0	 1	 99.2	 0.0;
	50257	 49.45	 -4.3005	 43.6	 -52.201	 1.0	 100.0	 1	 98.9	 0.0;
	50258	 94.5	 86.0345	 228.769	 -56.7	 1.0	 100.0	 1	 170.0	 19.0;
	50258	 94.5	 86.0345	 228.769	 -56.7	 1.0	 100.0	 1	 170.0	 19.0;
	50259	 22.25	 14.127	 69.954	 -41.7	 1.0	 100.0	 1	 44.5	 0.0;
	50260	 48.5	 0.0	 27.6	 -27.6	 1.0	 100.0	 1	 84.0	 13.0;
	50260	 68.75	 12.4	 53.6	 -28.8	 1.0	 100.0	 1	 86.5	 51.0;
	50260	 68.75	 12.4	 53.6	 -28.8	 1.0	 100.0	 1	 86.5	 51.0;
	50260	 175.0	 23.8	 152.6	 -105.0	 1.0	 100.0	 1	 315.0	 35.0;
	50261	 64.25	 12.4	 53.6	 -28.8	 1.0	 100.0	 1	 86.5	 42.0;
	50261	 64.25	 12.4	 53.6	 -28.8	 1.0	 100.0	 1	 86.5	 42.0;
	50262	 57.5	 9.047	 46.394	 -28.3	 1.0	 100.0	 1	 85.0	 30.0;
	50262	 57.5	 9.047	 46.394	 -28.3	 1.0	 100.0	 1	 85.0	 30.0;
	50262	 77.0	 11.647	 63.294	 -40.0	 1.0	 100.0	 1	 120.0	 34.0;
	50264	 30.0	 6.45	 27.9	 -15.0	 1.0	 100.0	 1	 45.0	 15.0;
	50264	 30.0	 6.45	 27.9	 -15.0	 1.0	 100.0	 1	 45.0	 15.0;
	50264	 30.0	 6.45	 27.9	 -15.0	 1.0	 100.0	 1	 45.0	 15.0;
	50264	 32.5	 7.15	 31.0	 -16.7	 1.0	 100.0	 1	 50.0	 15.0;
	50265	 64.75	 12.1	 52.4	 -28.2	 1.0	 100.0	 1	 84.5	 45.0;
	50265	 64.75	 12.1	 52.4	 -28.2	 1.0	 100.0	 1	 84.5	 45.0;
	50265	 64.75	 12.1	 52.4	 -28.2	 1.0	 100.0	 1	 84.5	 45.0;
	50265	 64.75	 12.1	 52.4	 -28.2	 1.0	 100.0	 1	 84.5	 45.0;
	50267	 47.0	 -0.9365	 14.727	 -16.6	 1.0	 100.0	 1	 49.9	 44.1;
	50267	 69.9	 0.7135	 25.627	 -24.2	 1.0	 100.0	 1	 72.5	 67.3;
	50272	 77.5	 17.9	 77.5	 -41.7	 1.0	 100.0	 1	 125.0	 30.0;
	50272	 82.5	 19.35	 83.7	 -45.0	 1.0	 100.0	 1	 135.0	 30.0;
	50272	 32.5	 6.45	 27.9	 -15.0	 1.0	 100.0	 1	 45.0	 20.0;
	50273	 30.0	 6.813	 28.626	 -15.0	 1.0	 100.0	 1	 45.0	 15.0;
	50273	 30.0	 6.813	 28.626	 -15.0	 1.0	 100.0	 1	 45.0	 15.0;
	50274	 7.6	 6.733	 17.141	 -3.675	 1.0	 100.0	 1	 11.2	 4.0;
	50274	 7.6	 6.733	 17.141	 -3.675	 1.0	 100.0	 1	 11.2	 4.0;
	50277	 20.25	 2.605	 21.21	 -16.0	 1.0	 100.0	 1	 40.5	 0.0;
	50277	 53.25	 2.605	 52.21	 -47.0	 1.0	 100.0	 1	 106.5	 0.0;
	50278	 13.75	 6.123	 18.646	 -6.4	 1.0	 100.0	 1	 19.5	 8.0;
	50278	 13.75	 6.123	 18.646	 -6.4	 1.0	 100.0	 1	 19.5	 8.0;
	50279	 19.5	 10.6925	 33.685	 -12.3	 1.0	 100.0	 1	 37.0	 2.0;
	50280	 30.0	 20.2515	 52.003	 -11.5	 1.0	 100.0	 1	 35.0	 25.0;
	50280	 30.0	 20.2515	 52.003	 -11.5	 1.0	 100.0	 1	 35.0	 25.0;
	50281	 25.05	 0.0	 12.7	 -12.7	 1.0	 100.0	 1	 32.1	 18.0;
	50281	 25.05	 0.0	 12.7	 -12.7	 1.0	 100.0	 1	 32.1	 18.0;
	50281	 25.05	 2.4	 15.5	 -10.7	 1.0	 100.0	 1	 32.1	 18.0;
	50282	 20.0	 0.0	 9.9	 -9.9	 1.0	 100.0	 1	 30.0	 10.0;
	50282	 20.0	 0.0	 9.9	 -9.9	 1.0	 100.0	 1	 30.0	 10.0;
	50283	 18.75	 5.618	 20.236	 -9.0	 1.0	 100.0	 1	 27.5	 10.0;
	50283	 18.75	 5.618	 20.236	 -9.0	 1.0	 100.0	 1	 27.5	 10.0;
	50283	 18.75	 5.618	 20.236	 -9.0	 1.0	 100.0	 1	 27.5	 10.0;
	50283	 18.75	 5.618	 20.236	 -9.0	 1.0	 100.0	 1	 27.5	 10.0;
	50287	 14.0	 1.7	 11.1	 -7.7	 1.0	 100.0	 1	 23.0	 5.0;
	50287	 318.5	 42.8	 274.6	 -189.0	 1.0	 100.0	 1	 567.0	 70.0;
	50290	 13.5	 3.824	 14.248	 -6.6	 1.0	 100.0	 1	 20.0	 7.0;
	50290	 13.5	 3.824	 14.248	 -6.6	 1.0	 100.0	 1	 20.0	 7.0;
	50291	 303.0	 84.45	 320.9	 -152.0	 1.0	 100.0	 1	 456.0	 150.0;
	50293	 82.35	 9.05	 58.0	 -39.9	 1.0	 100.0	 1	 119.7	 45.0;
	50293	 82.35	 9.05	 58.0	 -39.9	 1.0	 100.0	 1	 119.7	 45.0;
	50293	 128.15	 23.85	 103.1	 -55.4	 1.0	 100.0	 1	 166.3	 90.0;
	50294	 56.0	 0.0	 36.8	 -36.8	 1.0	 100.0	 1	 112.0	 0.0;
	50294	 56.0	 0.0	 36.8	 -36.8	 1.0	 100.0	 1	 112.0	 0.0;
	50294	 56.0	 0.0	 36.8	 -36.8	 1.0	 100.0	 1	 112.0	 0.0;
	50294	 56.0	 0.0	 36.8	 -36.8	 1.0	 100.0	 1	 112.0	 0.0;
	50294	 56.0	 0.0	 36.8	 -36.8	 1.0	 100.0	 1	 112.0	 0.0;
	50294	 56.0	 0.0	 36.8	 -36.8	 1.0	 100.0	 1	 112.0	 0.0;
	50294	 56.0	 0.0	 36.8	 -36.8	 1.0	 100.0	 1	 112.0	 0.0;
	50296	 69.8	 7.05	 45.3	 -31.2	 1.0	 100.0	 1	 93.5	 46.1;
	50296	 70.55	 7.15	 46.0	 -31.7	 1.0	 100.0	 1	 95.0	 46.1;
	50297	 38.75	 5.1	 32.7	 -22.5	 1.0	 100.0	 1	 67.5	 10.0;
	50297	 38.75	 5.1	 32.7	 -22.5	 1.0	 100.0	 1	 67.5	 10.0;
	50298	 43.75	 19.4475	 61.395	 -22.5	 1.0	 100.0	 1	 67.5	 20.0;
	50299	 29.25	 0.0	 29.2	 -29.2	 1.0	 100.0	 1	 58.5	 0.0;
	50299	 29.25	 0.0	 29.2	 -29.2	 1.0	 100.0	 1	 58.5	 0.0;
	50299	 29.25	 0.0	 29.2	 -29.2	 1.0	 100.0	 1	 58.5	 0.0;
	50299	 29.25	 0.0	 29.2	 -29.2	 1.0	 100.0	 1	 58.5	 0.0;
	50299	 29.25	 0.0	 29.2	 -29.2	 1.0	 100.0	 1	 58.5	 0.0;
	50299	 33.6	 0.0	 32.1	 -32.1	 1.0	 100.0	 1	 67.2	 0.0;
	50300	 25.5	 24.402	 69.004	 -20.2	 1.0	 100.0	 1	 51.0	 0.0;
	50301	 25.2	 16.7585	 53.417	 -19.9	 1.0	 100.0	 1	 50.4	 0.0;
	50302	 28.95	 35.9125	 86.125	 -14.3	 1.0	 100.0	 1	 42.9	 15.0;
	50303	 20.25	 2.177	 20.354	 -16.0	 1.0	 100.0	 1	 40.5	 0.0;
	50304	 20.0	 5.186	 23.472	 -13.1	 1.0	 100.0	 1	 40.0	 0.0;
	50304	 20.0	 5.186	 23.472	 -13.1	 1.0	 100.0	 1	 40.0	 0.0;
...
];

%% generator cost data
%	2	startup	shutdown	n	c(n-1)	...	c0
mpc.gencost = [
	2	 0.0	 0.0	 3	   0.000000	   2.380000	   0.000000;
	2	 0.0	 0.0	 3	   0.031720	  25.250000	  -1.897000;
	2	 0.0	 0.0	 3	   0.000000	   3.796000	   0.000000;
	2	 0.0	 0.0	 3	   0.000000	   1.968000	   0.000000;
	2	 0.0	 0.0	 3	   0.000000	   2.964000	   0.000000;
	2	 0.0	 0.0	 3	   0.000000	  19.680000	 -19.140000;
	2	 0.0	 0.0	 3	   0.000000	  54.630000	  -4.442000;
	2	 0.0	 0.0	 3	   0.000000	  55.370000	 -11.110000;
	2	 0.0	 0.0	 3	   0.059790	  27.970000	  -2.403000;
	2	 0.0	 0.0	 3	   0.000000	  21.020000	 -30.230000;
	2	 0.0	 0.0	 3	   0.000000	   0.002273	   0.000000;
	2	 0.0	 0.0	 3	   0.000000	   0.002273	   0.000000;
	2	 0.0	 0.0	 3	   0.000000	   0.002273	   0.000000;
	2	 0.0	 0.0	 3	   0.000000	  20.020000	 -19.520000;
	2	 0.0	 0.0	 3	   0.000000	  19.040000	 -19.520000;
	2	 0.0	 0.0	 3	   0.000000	  21.590000	 -20.020000;
	2	 0.0	 0.0	 3	   0.069020	  28.660000	  -2.376000;
	2	 0.0	 0.0	 3	   0.000000	  19.190000	 -60.170000;
	2	 0.0	 0.0	 3	   0.000000	  18.740000	 -36.100000;
	2	 0.0	 0.0	 3	   0.000000	  18.970000	 -60.170000;
	2	 0.0	 0.0	 3	   0.000000	  17.500000	 -36.100000;
	2	 0.0	 0.0	 3	   0.000000	  66.010000	 -118.600000;
	2	 0.0	 0.0	 3	   0.000000	  65.130000	 -118.600000;
	2	 0.0	 0.0	 3	   0.000000	  65.200000	 -118.600000;
	2	 0.0	 0.0	 3	   0.000000	   2.027000	   0.000000;
	2	 0.0	 0.0	 3	   0.000000	   3.465000	   0.000000;
	2	 0.0	 0.0	 3	   0.004145	  14.790000	   0.000000;
	2	 0.0	 0.0	 3	   0.000000	   3.118000	   0.000000;
	2	 0.0	 0.0	 3	   0.000000	   1.210000	   0.000000;
	2	 0.0	 0.0	 3	   0.000000	  18.650000	 -26.140000;
	2	 0.0	 0.0	 3	   0.000000	  32.230000	 -53.800000;
	2	 0.0	 0.0	 3	   0.000000	  16.810000	 -30.360000;
	2	 0.0	 0.0	 3	   0.000000	  30.210000	 -27.620000;
	2	 0.0	 0.0	 3	   0.000000	   3.697000	   0.000000;
	2	 0.0	 0.0	 3	   0.000000	   3.204000	   0.000000;
	2	 0.0	 0.0	 3	   0.000000	   3.974000	   0.000000;
	2	 0.0	 0.0	 3	   0.000000	  19.710000	   0.000000;
	2	 0.0	 0.0	 3	   0.000000	  17.900000	   0.000000;
	2	 0.0	 0.0	 3	   0.000000	  17.770000	   0.000000;
	2	 0.0	 0.0	 3	   0.000000	  18.790000	   0.000000;
	2	 0.0	 0.0	 3	   0.000000	  17.490000	   0.000000;
	2	 0.0	 0.0	 3	   0.000000	   1.704000	   0.000000;
	2	 0.0	 0.0	 3	   0.000000	   1.280000	   0.000000;
	2	 0.0	 0.0	 3	   0.000000	   2.148000	   0.000000;
	2	 0.0	 0.0	 3	   0.000000	   1.458000	   0.000000;
	2	 0.0	 0.0	 3	   0.002036	  16.060000	  -1.132000;
	2	 0.0	 0.0	 3	   0.002035	  16.530000	  -1.131000;
	2	 0.0	 0.0	 3	   0.002090	  14.420000	  -1.077000;
	2	 0.0	 0.0	 3	   0.000000	   0.000355	   0.000000;
	2	 0.0	 0.0	 3	   0.000000	   2.209000	   0.000000;
	2	 0.0	 0.0	 3	   0.000000	  22.440000	 -25.880000;
	2	 0.0	 0.0	 3	   0.000000	  21.020000	 -17.780000;
	2	 0.0	 0.0	 3	   0.000000	  22.140000	 -17.780000;
	2	 0.0	 0.0	 3	   0.007369	  17.210000	   0.000000;
	2	 0.0	 0.0	 3	   0.000000	  20.850000	 -24.240000;
	2	 0.0	 0.0	 3	   0.000000	  21.150000	 -47.870000;
	2	 0.0	 0.0	 3	   0.000000	  21.070000	 -29.320000;
	2	 0.0	 0.0	 3	   0.000000	  17.090000	 -35.110000;
	2	 0.0	 0.0	 3	   0.051300	  16.560000	  -1.003000;
	2	 0.0	 0.0	 3	   0.000000	  33.230000	 -90.670000;
	2	 0.0	 0.0	 3	   0.000000	  33.410000	 -29.710000;
	2	 0.0	 0.0	 3	   0.000000	  21.370000	 -40.890000;
	2	 0.0	 0.0	 3	   0.000000	  23.940000	 -108.700000;
	2	 0.0	 0.0	 3	   0.000000	  23.480000	 -108.700000;
	2	 0.0	 0.0	 3	   0.000000	  21.740000	 -108.700000;
	2	 0.0	 0.0	 3	   0.000000	   2.928000	   0.000000;
	2	 0.0	 0.0	 3	   0.000000	   3.603000	   0.000000;
	2	 0.0	 0.0	 3	   0.000000	  54.980000	 -12.710000;
	2	 0.0	 0.0	 3	   0.000000	  18.110000	 -49.170000;
	2	 0.0	 0.0	 3	   0.000000	  19.450000	 -49.170000;
	2	 0.0	 0.0	 3	   0.000000	  17.530000	 -64.880000;
	2	 0.0	 0.0	 3	   0.000000	  20.280000	 -56.430000;
	2	 0.0	 0.0	 3	   0.000000	  19.590000	 -57.710000;
	2	 0.0	 0.0	 3	   0.122600	  17.300000	  -1.998000;
	2	 0.0	 0.0	 3	   0.000000	  19.710000	   0.000000;
	2	 0.0	 0.0	 3	   0.000000	  18.420000	   0.000000;
	2	 0.0	 0.0	 3	   0.000000	  18.940000	   0.000000;
	2	 0.0	 0.0	 3	   0.000000	  18.660000	   0.000000;
	2	 0.0	 0.0	 3	   0.000000	  19.670000	 -12.080000;
	2	 0.0	 0.0	 3	   0.000000	  17.710000	  -9.739000;
	2	 0.0	 0.0	 3	   0.000000	  32.870000	 -30.950000;
	2	 0.0	 0.0	 3	   0.000000	   0.003419	   0.000000;
	2	 0.0	 0.0	 3	   0.000000	   0.003419	   0.000000;
	2	 0.0	 0.0	 3	   0.000000	   0.003419	   0.000000;
	2	 0.0	 0.0	 3	   0.024740	  25.480000	  -1.920000;
	2	 0.0	 0.0	 3	   0.002140	  17.170000	   0.000000;
	2	 0.0	 0.0	 3	   0.005451	  15.470000	  -1.757000;
	2	 0.0	 0.0	 3	   0.000000	  23.550000	 -960.700000;
	2	 0.0	 0.0	 3	   0.038710	  13.260000	  -6.516000;
	2	 0.0	 0.0	 3	   0.096770	  11.240000	 -16.290000;
	2	 0.0	 0.0	 3	   0.003122	  14.930000	  -1.034000;
	2	 0.0	 0.0	 3	   0.005206	  16.790000	  -1.352000;
	2	 0.0	 0.0	 3	   0.000000	  43.840000	 -2356.000000;
	2	 0.0	 0.0	 3	   0.000000	  43.070000	 -2356.000000;
	2	 0.0	 0.0	 3	   0.000000	  25.910000	 -245.100000;
	2	 0.0	 0.0	 3	   0.027740	  20.290000	  -4.092000;
	2	 0.0	 0.0	 3	   0.038790	  12.110000	  -4.407000;
	2	 0.0	 0.0	 3	   0.038790	  11.350000	  -4.407000;
	2	 0.0	 0.0	 3	   0.038790	  11.240000	  -4.407000;
	2	 0.0	 0.0	 3	   0.038790	  10.860000	  -4.407000;
	2	 0.0	 0.0	 3	   0.031670	  13.620000	  -4.181000;
	2	 0.0	 0.0	 3	   0.031680	  15.350000	  -3.256000;
	2	 0.0	 0.0	 3	   0.064240	  13.550000	 -19.530000;
	2	 0.0	 0.0	 3	   0.000000	  24.090000	 -939.700000;
	2	 0.0	 0.0	 3	   0.000000	  22.920000	 -939.700000;
	2	 0.0	 0.0	 3	   0.000000	  24.630000	 -110.600000;
	2	 0.0	 0.0	 3	   0.000000	  22.530000	 -110.600000;
	2	 0.0	 0.0	 3	   0.000000	  22.570000	 -110.600000;
	2	 0.0	 0.0	 3	   0.038710	  10.870000	  -6.406000;
	2	 0.0	 0.0	 3	   0.038710	  12.890000	  -6.406000;
	2	 0.0	 0.0	 3	   0.000000	  25.230000	 -243.700000;
	2	 0.0	 0.0	 3	   0.096570	  11.300000	 -21.780000;
	2	 0.0	 0.0	 3	   0.038630	  11.180000	  -8.711000;
	2	 0.0	 0.0	 3	   0.038630	  12.370000	  -8.711000;
	2	 0.0	 0.0	 3	   0.064380	  13.410000	 -14.520000;
	2	 0.0	 0.0	 3	   0.031650	  14.350000	  -3.482000;
	2	 0.0	 0.0	 3	   0.031650	  13.840000	  -3.482000;
	2	 0.0	 0.0	 3	   0.000000	   3.742000	   0.000000;
	2	 0.0	 0.0	 3	   0.000000	   1.257000	   0.000000;
	2	 0.0	 0.0	 3	   0.000000	   1.687000	   0.000000;
	2	 0.0	 0.0	 3	   0.000000	   2.573000	   0.000000;
	2	 0.0	 0.0	 3	   0.000000	   2.207000	   0.000000;
	2	 0.0	 0.0	 3	   0.000000	   1.732000	   0.000000;
	2	 0.0	 0.0	 3	   0.014940	  24.620000	   0.000000;
	2	 0.0	 0.0	 3	   0.014940	  26.070000	   0.000000;
	2	 0.0	 0.0	 3	   0.000000	   1.734000	   0.000000;
	2	 0.0	 0.0	 3	   0.033900	  28.310000	  -1.038000;
	2	 0.0	 0.0	 3	   0.000000	  22.290000	 -106.600000;
	2	 0.0	 0.0	 3	   0.000000	  22.930000	 -106.600000;
	2	 0.0	 0.0	 3	   0.013820	  23.990000	  -1.414000;
	2	 0.0	 0.0	 3	   0.000000	  20.300000	 -37.440000;
	2	 0.0	 0.0	 3	   0.000000	  20.050000	 -37.440000;
	2	 0.0	 0.0	 3	   0.000000	  22.390000	 -38.900000;
	2	 0.0	 0.0	 3	   0.000000	  22.070000	 -38.900000;
	2	 0.0	 0.0	 3	   0.000000	  23.270000	 -69.150000;
	2	 0.0	 0.0	 3	   0.000000	  21.010000	 -73.520000;
	2	 0.0	 0.0	 3	   0.000000	  18.410000	 -29.410000;
	2	 0.0	 0.0	 3	   0.000000	  17.170000	 -29.410000;
	2	 0.0	 0.0	 3	   0.000000	  31.810000	 -77.990000;
	2	 0.0	 0.0	 3	   0.000000	  20.280000	 -37.960000;
	2	 0.0	 0.0	 3	   0.000000	  22.440000	 -94.910000;
	2	 0.0	 0.0	 3	   0.000000	  19.990000	 -37.960000;
	2	 0.0	 0.0	 3	   0.000000	  21.390000	 -63.270000;
	2	 0.0	 0.0	 3	   0.000000	  23.160000	 -143.600000;
	2	 0.0	 0.0	 3	   0.000000	  23.910000	 -55.220000;
	2	 0.0	 0.0	 3	   0.021640	  25.210000	  -1.192000;
	2	 0.0	 0.0	 3	   0.033120	  26.010000	  -1.888000;
	2	 0.0	 0.0	 3	   0.000000	  36.060000	 -150.300000;
	2	 0.0	 0.0	 3	   0.000000	  18.180000	 -29.410000;
	2	 0.0	 0.0	 3	   0.000000	  19.350000	 -49.010000;
	2	 0.0	 0.0	 3	   0.000000	  17.930000	  -4.537000;
	2	 0.0	 0.0	 3	   0.000000	  18.480000	  -4.537000;
	2	 0.0	 0.0	 3	   0.000000	   3.497000	   0.000000;
	2	 0.0	 0.0	 3	   0.000000	   1.949000	   0.000000;
	2	 0.0	 0.0	 3	   0.000000	  19.660000	 -14.890000;
	2	 0.0	 0.0	 3	   0.000000	  19.770000	 -14.890000;
	2	 0.0	 0.0	 3	   0.183200	  18.400000	  -2.007000;
	2	 0.0	 0.0	 3	   0.000000	  21.280000	 -69.790000;
	2	 0.0	 0.0	 3	   0.000000	  25.870000	 -116.300000;
	2	 0.0	 0.0	 3	   0.000000	  21.450000	 -49.310000;
	2	 0.0	 0.0	 3	   0.000000	  22.360000	 -49.310000;
	2	 0.0	 0.0	 3	   0.000000	  21.890000	 -49.310000;
	2	 0.0	 0.0	 3	   0.000000	  19.130000	 -31.350000;
	2	 0.0	 0.0	 3	   0.000000	  21.830000	 -31.350000;
	2	 0.0	 0.0	 3	   0.000000	  25.630000	 -69.070000;
	2	 0.0	 0.0	 3	   0.000000	  21.220000	 -27.630000;
	2	 0.0	 0.0	 3	   0.000000	  20.710000	 -27.630000;
	2	 0.0	 0.0	 3	   0.000000	  24.000000	 -69.070000;
	2	 0.0	 0.0	 3	   0.000000	  18.740000	 -10.440000;
	2	 0.0	 0.0	 3	   0.003477	  24.560000	   0.000000;
	2	 0.0	 0.0	 3	   0.000000	  23.260000	 -35.770000;
	2	 0.0	 0.0	 3	   0.000000	  20.310000	 -14.310000;
	2	 0.0	 0.0	 3	   0.005649	  14.370000	  -1.382000;
	2	 0.0	 0.0	 3	   0.000000	  19.860000	 -61.400000;
	2	 0.0	 0.0	 3	   0.000000	  20.490000	 -61.400000;
	2	 0.0	 0.0	 3	   0.000000	  63.380000	 -99.060000;
	2	 0.0	 0.0	 3	   0.024780	  18.900000	   0.000000;
	2	 0.0	 0.0	 3	   0.024780	  18.720000	   0.000000;
	2	 0.0	 0.0	 3	   0.024780	  16.380000	   0.000000;
	2	 0.0	 0.0	 3	   0.024780	  16.730000	   0.000000;
	2	 0.0	 0.0	 3	   0.024780	  18.090000	   0.000000;
	2	 0.0	 0.0	 3	   0.024780	  16.330000	   0.000000;
	2	 0.0	 0.0	 3	   0.024780	  17.540000	   0.000000;
	2	 0.0	 0.0	 3	   0.000000	  20.850000	 -44.180000;
	2	 0.0	 0.0	 3	   0.000000	  21.130000	 -45.140000;
	2	 0.0	 0.0	 3	   0.000000	  55.350000	 -15.040000;
	2	 0.0	 0.0	 3	   0.000000	  54.010000	 -15.040000;
	2	 0.0	 0.0	 3	   0.000000	  55.380000	 -33.310000;
	2	 0.0	 0.0	 3	   0.073830	  16.270000	   0.000000;
	2	 0.0	 0.0	 3	   0.073830	  18.240000	   0.000000;
	2	 0.0	 0.0	 3	   0.184600	  18.370000	   0.000000;
	2	 0.0	 0.0	 3	   0.184600	  17.630000	   0.000000;
	2	 0.0	 0.0	 3	   0.184600	  18.760000	   0.000000;
	2	 0.0	 0.0	 3	   0.073940	  17.120000	   0.000000;
	2	 0.0	 0.0	 3	   0.000000	   1.406000	   0.000000;
	2	 0.0	 0.0	 3	   0.000000	   3.491000	   0.000000;
	2	 0.0	 0.0	 3	   0.000000	  19.150000	 -27.430000;
	2	 0.0	 0.0	 3	   0.000000	   1.029000	   0.000000;
	2	 0.0	 0.0	 3	   0.000000	  19.490000	   0.000000;
	2	 0.0	 0.0	 3	   0.000000	  19.980000	   0.000000;
...
];

%% branch data
%	fbus	tbus	r	x	b	rateA	rateB	rateC	ratio	angle	status	angmin	angmax
mpc.branch = [
	50134	 50135	 0.00497766	 0.0361207	 1.31774	 675.75	 795.0	 795.0	 0.0	 0.0	 1	 -30.0	 30.0;
	50134	 50948	 0.00503332	 0.03628	 1.34238	 675.75	 795.0	 795.0	 0.0	 0.0	 1	 -30.0	 30.0;
	50134	 52364	 0.00513118	 0.0607667	 2.44002	 906.95	 1067.0	 1067.0	 0.0	 0.0	 1	 -30.0	 30.0;
	50134	 75433	 1e-07	 0.0001	 0.0	 864.11	 1016.63	 1016.63	 0.0	 0.0	 1	 -30.0	 30.0;
	50135	 51114	 0.00329039	 0.0423459	 2.93791	 1275.0	 1500.0	 1500.0	 0.0	 0.0	 1	 -30.0	 30.0;
	50135	 51754	 0.00392295	 0.0283769	 1.03051	 795.0	 795.0	 795.0	 0.0	 0.0	 1	 -30.0	 30.0;
	50135	 75437	 1e-07	 0.0001	 0.0	 425.0	 500.0	 500.0	 0.0	 0.0	 1	 -30.0	 30.0;
	50136	 50891	 0.00435841	 0.031565	 1.14828	 900.0	 900.0	 900.0	 0.0	 0.0	 1	 -30.0	 30.0;
	50136	 50948	 0.00366073	 0.0466526	 1.90446	 974.95	 1147.0	 1147.0	 0.0	 0.0	 1	 -30.0	 30.0;
	50136	 75441	 1e-07	 0.0001	 0.0	 1175.0	 1175.0	 1175.0	 0.0	 0.0	 1	 -30.0	 30.0;
	50137	 50680	 0.000436738	 0.00312195	 0.114136	 1040.4	 1224.0	 1224.0	 0.0	 0.0	 1	 -30.0	 30.0;
	50137	 50714	 0.00208343	 0.0150163	 0.542472	 754.8	 888.0	 888.0	 0.0	 0.0	 1	 -30.0	 30.0;
	50138	 52738	 0.000646844	 0.00462419	 0.169074	 675.75	 795.0	 795.0	 0.0	 0.0	 1	 -30.0	 30.0;
	50139	 51288	 0.000628405	 0.00418439	 0.0587631	 676.6	 796.0	 796.0	 0.0	 0.0	 1	 -30.0	 30.0;
	50139	 75966	 0.00381758	 0.0141112	 0.113484	 301.75	 355.0	 355.0	 0.0	 0.0	 1	 -30.0	 30.0;
	50139	 75973	 0.00491131	 0.0181574	 0.146061	 301.75	 355.0	 355.0	 0.0	 0.0	 1	 -30.0	 30.0;
	50140	 50580	 0.0254717	 0.0861601	 0.0488646	 199.75	 235.0	 235.0	 0.0	 0.0	 1	 -30.0	 30.0;
	50140	 50616	 0.0336321	 0.161754	 0.050155	 162.35	 191.0	 191.0	 0.0	 0.0	 1	 -30.0	 30.0;
	50140	 76081	 0.095165	 0.245335	 0.0609543	 100.3	 118.0	 118.0	 0.0	 0.0	 1	 -30.0	 30.0;
	50140	 76084	 0.0960444	 0.247616	 0.0615248	 100.3	 118.0	 118.0	 0.0	 0.0	 1	 -30.0	 30.0;
	50141	 50690	 0.0188006	 0.0496918	 0.0116326	 198.05	 233.0	 233.0	 0.0	 0.0	 1	 -30.0	 30.0;
	50141	 50692	 0.00818365	 0.0216283	 0.00506251	 198.05	 233.0	 233.0	 0.0	 0.0	 1	 -30.0	 30.0;
	50141	 50695	 0.00725006	 0.0194641	 0.00441126	 142.0	 142.0	 142.0	 0.0	 0.0	 1	 -30.0	 30.0;
	50142	 50144	 0.0022394	 0.0051982	 0.00158363	 100.3	 118.0	 118.0	 0.0	 0.0	 1	 -30.0	 30.0;
	50142	 50570	 0.0713394	 0.264764	 0.0788247	 135.15	 159.0	 159.0	 0.0	 0.0	 1	 -30.0	 30.0;
	50142	 75975	 0.0184869	 0.0634275	 0.0151984	 120.7	 142.0	 142.0	 0.0	 0.0	 1	 -30.0	 30.0;
	50143	 50694	 0.0303977	 0.104324	 0.0250076	 205.7	 242.0	 242.0	 0.0	 0.0	 1	 -30.0	 30.0;
	50143	 50717	 0.00989076	 0.0229596	 0.00699487	 202.0	 202.0	 202.0	 0.0	 0.0	 1	 -30.0	 30.0;
	50143	 50931	 0.0437305	 0.113419	 0.0343418	 108.8	 128.0	 128.0	 0.0	 0.0	 1	 -30.0	 30.0;
	50144	 50637	 0.109337	 0.290053	 0.0681957	 100.3	 118.0	 118.0	 0.0	 0.0	 1	 -30.0	 30.0;
	50144	 50676	 0.0208692	 0.0771869	 0.0228754	 135.15	 159.0	 159.0	 0.0	 0.0	 1	 -30.0	 30.0;
	50145	 51243	 0.00159684	 0.0232993	 0.0371868	 711.45	 837.0	 837.0	 0.0	 0.0	 1	 -30.0	 30.0;
	50146	 50731	 0.00374091	 0.01448	 0.10605	 955.0	 955.0	 955.0	 0.0	 0.0	 1	 -30.0	 30.0;
	50146	 51141	 0.0029826	 0.0135168	 0.103492	 338.3	 398.0	 398.0	 0.0	 0.0	 1	 -30.0	 30.0;
	50147	 50602	 0.0608557	 0.165873	 0.0365939	 100.3	 118.0	 118.0	 0.0	 0.0	 1	 -30.0	 30.0;
	50147	 50976	 0.0384959	 0.122327	 0.0343499	 120.7	 142.0	 142.0	 0.0	 0.0	 1	 -30.0	 30.0;
	50147	 51033	 0.0706849	 0.233867	 0.0608203	 120.7	 142.0	 142.0	 0.0	 0.0	 1	 -30.0	 30.0;
	50147	 51242	 0.0797053	 0.214406	 0.0487064	 100.3	 118.0	 118.0	 0.0	 0.0	 1	 -30.0	 30.0;
	50147	 51829	 0.114309	 0.308146	 0.0701797	 100.3	 118.0	 118.0	 0.0	 0.0	 1	 -30.0	 30.0;
	50147	 75994	 0.0764892	 0.17789	 0.0543089	 100.3	 118.0	 118.0	 0.0	 0.0	 1	 -30.0	 30.0;
	50148	 50659	 0.0372618	 0.0898338	 0.025376	 130.39	 153.4	 153.4	 0.0	 0.0	 1	 -30.0	 30.0;
	50148	 50864	 0.00185896	 0.0129503	 0.00486851	 212.5	 250.0	 250.0	 0.0	 0.0	 1	 -30.0	 30.0;
	50148	 50865	 0.00189948	 0.0210357	 0.00684224	 276.25	 325.0	 325.0	 0.0	 0.0	 1	 -30.0	 30.0;
	50148	 50909	 0.158501	 0.41078	 0.10269	 100.3	 118.0	 118.0	 0.0	 0.0	 1	 -30.0	 30.0;
	50149	 50555	 0.0491466	 0.114171	 0.0348124	 100.3	 118.0	 118.0	 0.0	 0.0	 1	 -30.0	 30.0;
	50149	 50936	 0.0124901	 0.028994	 0.00883351	 100.3	 118.0	 118.0	 0.0	 0.0	 1	 -30.0	 30.0;
	50149	 50937	 0.00843663	 0.0218655	 0.00661498	 108.8	 128.0	 128.0	 0.0	 0.0	 1	 -30.0	 30.0;
	50150	 50731	 0.0070801	 0.0270581	 0.203811	 955.0	 955.0	 955.0	 0.0	 0.0	 1	 -30.0	 30.0;
	50150	 50999	 0.00022866	 0.000869888	 0.00659225	 445.0	 445.0	 445.0	 0.0	 0.0	 1	 -30.0	 30.0;
	50151	 50602	 0.0426728	 0.114626	 0.0259954	 100.3	 118.0	 118.0	 0.0	 0.0	 1	 -30.0	 30.0;
	50151	 76018	 0.0319316	 0.101443	 0.028477	 120.7	 142.0	 142.0	 0.0	 0.0	 1	 -30.0	 30.0;
	50152	 50737	 0.0198553	 0.0486062	 0.0132989	 100.3	 118.0	 118.0	 0.0	 0.0	 1	 -30.0	 30.0;
	50152	 51178	 0.0103175	 0.0426015	 0.0100802	 135.15	 159.0	 159.0	 0.0	 0.0	 1	 -30.0	 30.0;
	50152	 51180	 0.00459188	 0.0160031	 0.00371068	 120.7	 142.0	 142.0	 0.0	 0.0	 1	 -30.0	 30.0;
	50153	 50564	 0.0788341	 0.188062	 0.00264684	 48.45	 57.0	 57.0	 0.0	 0.0	 1	 -30.0	 30.0;
	50153	 50565	 0.0788478	 0.174528	 0.00286203	 48.45	 57.0	 57.0	 0.0	 0.0	 1	 -30.0	 30.0;
	50153	 50567	 0.0173626	 0.0975588	 0.00180664	 87.55	 103.0	 103.0	 0.0	 0.0	 1	 -30.0	 30.0;
	50154	 51250	 0.000948913	 0.0066105	 0.00248511	 300.73	 353.81	 353.81	 0.0	 0.0	 1	 -30.0	 30.0;
	50154	 51252	 0.000479198	 0.00258318	 0.00083298	 174.25	 205.0	 205.0	 0.0	 0.0	 1	 -30.0	 30.0;
	50154	 51257	 0.000999401	 0.00550344	 0.00198687	 242.85	 285.74	 285.74	 0.0	 0.0	 1	 -30.0	 30.0;
	50155	 50637	 0.0158636	 0.0552923	 0.0128228	 120.7	 142.0	 142.0	 0.0	 0.0	 1	 -30.0	 30.0;
	50155	 50702	 0.052904	 0.144159	 0.0317926	 100.3	 118.0	 118.0	 0.0	 0.0	 1	 -30.0	 30.0;
	50156	 50673	 0.000112807	 0.000811926	 0.0292726	 1040.4	 1224.0	 1224.0	 0.0	 0.0	 1	 -30.0	 30.0;
	50156	 51570	 0.00592133	 0.0431232	 1.58133	 838.95	 987.0	 987.0	 0.0	 0.0	 1	 -30.0	 30.0;
	50157	 50919	 0.000894658	 0.00499142	 0.00127489	 231.28	 272.06	 272.06	 0.0	 0.0	 1	 -30.0	 30.0;
	50157	 50920	 0.000615474	 0.00279392	 0.000969656	 231.03	 271.76	 271.76	 0.0	 0.0	 1	 -30.0	 30.0;
	50157	 76014	 0.0356209	 0.113179	 0.0317766	 120.7	 142.0	 142.0	 0.0	 0.0	 1	 -30.0	 30.0;
	50158	 50680	 0.000112402	 0.000809013	 0.0291676	 675.75	 795.0	 795.0	 0.0	 0.0	 1	 -30.0	 30.0;
	50159	 50880	 0.0259213	 0.0624787	 0.0176442	 100.3	 118.0	 118.0	 0.0	 0.0	 1	 -30.0	 30.0;
	50160	 50731	 0.00988714	 0.0788146	 0.683713	 487.9	 574.0	 574.0	 0.0	 0.0	 1	 -30.0	 30.0;
	50160	 50985	 0.0193093	 0.0742793	 0.564407	 926.92	 1090.5	 1090.5	 0.0	 0.0	 1	 -30.0	 30.0;
	50160	 51031	 0.0394589	 0.152501	 1.26146	 301.75	 355.0	 355.0	 0.0	 0.0	 1	 -30.0	 30.0;
	50161	 51276	 0.000199282	 0.000736833	 0.000218279	 135.15	 159.0	 159.0	 0.0	 0.0	 1	 -30.0	 30.0;
	50161	 51279	 0.00184145	 0.00716375	 0.00191334	 135.15	 159.0	 159.0	 0.0	 0.0	 1	 -30.0	 30.0;
	50162	 51170	 0.0373311	 0.125783	 0.00195384	 60.35	 71.0	 71.0	 0.0	 0.0	 1	 -30.0	 30.0;
	50162	 75992	 0.20104	 0.561049	 0.00736684	 50.15	 59.0	 59.0	 0.0	 0.0	 1	 -30.0	 30.0;
	50163	 50164	 0.00351758	 0.0105873	 0.000207012	 60.35	 71.0	 71.0	 0.0	 0.0	 1	 -30.0	 30.0;
	50163	 50561	 0.0704085	 0.286572	 0.00436496	 68.0	 80.0	 80.0	 0.0	 0.0	 1	 -30.0	 30.0;
	50163	 50724	 0.113398	 0.454143	 0.00959788	 74.8	 88.0	 88.0	 0.0	 0.0	 1	 -30.0	 30.0;
	50163	 50875	 0.669777	 0.639451	 0.00956317	 44.0	 44.0	 49.0	 0.0	 0.0	 1	 -30.0	 30.0;
	50163	 50876	 0.40261	 0.41731	 0.00524696	 44.0	 44.0	 49.0	 0.0	 0.0	 1	 -30.0	 30.0;
	50164	 50986	 0.137305	 0.482266	 0.00689386	 60.35	 71.0	 71.0	 0.0	 0.0	 1	 -30.0	 30.0;
	50165	 50645	 0.00205864	 0.0113364	 0.00409275	 186.15	 219.0	 219.0	 0.0	 0.0	 1	 -30.0	 30.0;
	50165	 50646	 0.00473536	 0.0154896	 0.011612	 217.6	 256.0	 256.0	 0.0	 0.0	 1	 -30.0	 30.0;
	50165	 50649	 0.0025522	 0.0102134	 0.00345004	 148.75	 175.0	 175.0	 0.0	 0.0	 1	 -30.0	 30.0;
	50165	 50650	 0.00503965	 0.0172879	 0.00414164	 120.7	 142.0	 142.0	 0.0	 0.0	 1	 -30.0	 30.0;
	50165	 51180	 0.0428268	 0.116664	 0.0257198	 100.3	 118.0	 118.0	 0.0	 0.0	 1	 -30.0	 30.0;
	50165	 51213	 0.0385762	 0.122583	 0.0344219	 120.7	 142.0	 142.0	 0.0	 0.0	 1	 -30.0	 30.0;
	50166	 50667	 0.0415751	 0.110296	 0.0448089	 198.05	 233.0	 233.0	 0.0	 0.0	 1	 -30.0	 30.0;
	50166	 50690	 0.0128247	 0.0297709	 0.00907023	 100.3	 118.0	 118.0	 0.0	 0.0	 1	 -30.0	 30.0;
	50166	 50692	 0.0284847	 0.0697403	 0.0190842	 100.3	 118.0	 118.0	 0.0	 0.0	 1	 -30.0	 30.0;
	50166	 50733	 0.0389603	 0.0904808	 0.02758	 198.05	 233.0	 233.0	 0.0	 0.0	 1	 -30.0	 30.0;
	50167	 51141	 0.000494641	 0.00188852	 0.0142064	 301.75	 355.0	 355.0	 0.0	 0.0	 1	 -30.0	 30.0;
	50167	 53053	 0.0334451	 0.127796	 1.04176	 301.75	 355.0	 355.0	 0.0	 0.0	 1	 -30.0	 30.0;
	50168	 51232	 0.0361256	 0.108807	 0.0340688	 120.7	 142.0	 142.0	 0.0	 0.0	 1	 -30.0	 30.0;
	50169	 50950	 0.025036	 0.0575184	 0.000873645	 48.45	 57.0	 57.0	 0.0	 0.0	 1	 -30.0	 30.0;
	50169	 50951	 0.00417814	 0.00959888	 0.000145795	 48.45	 57.0	 57.0	 0.0	 0.0	 1	 -30.0	 30.0;
	50170	 50859	 0.00112499	 0.012306	 0.00410277	 276.25	 325.0	 325.0	 0.0	 0.0	 1	 -30.0	 30.0;
	50170	 50863	 0.000733172	 0.00793685	 0.00334027	 294.95	 347.0	 347.0	 0.0	 0.0	 1	 -30.0	 30.0;
	50170	 50867	 0.00798487	 0.0303521	 0.00849679	 135.15	 159.0	 159.0	 0.0	 0.0	 1	 -30.0	 30.0;
	50171	 50585	 0.0157621	 0.0353626	 0.000563876	 48.45	 57.0	 57.0	 0.0	 0.0	 1	 -30.0	 30.0;
	50171	 75896	 0.0411336	 0.095499	 0.00142026	 48.45	 57.0	 57.0	 0.0	 0.0	 1	 -30.0	 30.0;
	50171	 75898	 0.343623	 0.332193	 0.00482427	 44.0	 44.0	 49.0	 0.0	 0.0	 1	 -30.0	 30.0;
	50172	 75905	 0.011692	 0.0432306	 0.000800421	 68.0	 80.0	 80.0	 0.0	 0.0	 1	 -30.0	 30.0;
	50172	 75906	 0.00276501	 0.010059	 0.000192461	 68.0	 80.0	 80.0	 0.0	 0.0	 1	 -30.0	 30.0;
	50173	 50963	 0.042632	 0.040615	 0.000607163	 69.0	 69.0	 78.0	 0.0	 0.0	 1	 -30.0	 30.0;
	50173	 76003	 0.0205666	 0.0382412	 0.000895067	 48.45	 57.0	 57.0	 0.0	 0.0	 1	 -30.0	 30.0;
	50175	 50587	 0.00278974	 0.00647567	 0.00197282	 100.3	 118.0	 118.0	 0.0	 0.0	 1	 -30.0	 30.0;
	50175	 50588	 0.00176247	 0.00465788	 0.00109024	 100.3	 118.0	 118.0	 0.0	 0.0	 1	 -30.0	 30.0;
	50176	 50965	 0.00059404	 0.00427607	 0.154191	 675.75	 795.0	 795.0	 0.0	 0.0	 1	 -30.0	 30.0;
	50178	 51231	 0.0276626	 0.0717136	 0.0217024	 108.8	 128.0	 128.0	 0.0	 0.0	 1	 -30.0	 30.0;
	50178	 51232	 0.00443518	 0.0102952	 0.00313645	 100.3	 118.0	 118.0	 0.0	 0.0	 1	 -30.0	 30.0;
	50179	 51229	 0.0260617	 0.0605088	 0.0184385	 100.3	 118.0	 118.0	 0.0	 0.0	 1	 -30.0	 30.0;
	50179	 51232	 0.0107272	 0.0258513	 0.00729905	 100.3	 118.0	 118.0	 0.0	 0.0	 1	 -30.0	 30.0;
	50179	 51234	 0.0198737	 0.0461375	 0.0140578	 100.3	 118.0	 118.0	 0.0	 0.0	 1	 -30.0	 30.0;
	50181	 50182	 0.000688823	 0.00495854	 0.17881	 675.75	 795.0	 795.0	 0.0	 0.0	 1	 -30.0	 30.0;
	50181	 52007	 0.00215229	 0.0166707	 0.65919	 707.2	 832.0	 832.0	 0.0	 0.0	 1	 -30.0	 30.0;
	50181	 75478	 1e-07	 0.0001	 0.0	 722.5	 850.0	 850.0	 0.0	 0.0	 1	 -30.0	 30.0;
	50182	 51924	 0.00245723	 0.0177201	 0.640659	 675.75	 795.0	 795.0	 0.0	 0.0	 1	 -30.0	 30.0;
	50182	 52042	 0.00499167	 0.0362241	 1.3216	 675.75	 795.0	 795.0	 0.0	 0.0	 1	 -30.0	 30.0;
	50182	 75479	 1e-07	 0.0001	 0.0	 680.0	 800.0	 800.0	 0.0	 0.0	 1	 -30.0	 30.0;
	50183	 51968	 0.00118283	 0.00851716	 0.307268	 675.75	 795.0	 795.0	 0.0	 0.0	 1	 -30.0	 30.0;
	50183	 51971	 0.00179323	 0.0129199	 0.466498	 675.75	 795.0	 795.0	 0.0	 0.0	 1	 -30.0	 30.0;
	50183	 53181	 0.00740826	 0.0857626	 3.55501	 873.8	 1028.0	 1028.0	 0.0	 0.0	 1	 -30.0	 30.0;
	50183	 75482	 1e-07	 0.0001	 0.0	 1275.0	 1500.0	 1500.0	 0.0	 0.0	 1	 -30.0	 30.0;
	50185	 75490	 0.00741991	 0.0813172	 0.0225589	 260.95	 307.0	 307.0	 0.0	 0.0	 1	 -30.0	 30.0;
	50186	 52001	 0.00386141	 0.0268516	 1.05569	 675.75	 795.0	 795.0	 0.0	 0.0	 1	 -30.0	 30.0;
	50186	 52017	 0.00371759	 0.0268774	 0.975322	 675.75	 795.0	 795.0	 0.0	 0.0	 1	 -30.0	 30.0;
	50187	 51919	 0.000796	 0.00573	 0.10332	 675.75	 795.0	 795.0	 0.0	 0.0	 1	 -30.0	 30.0;
	50187	 51978	 0.002127	 0.014741	 0.25	 675.75	 795.0	 795.0	 0.0	 0.0	 1	 -30.0	 30.0;
	50188	 51986	 0.0952505	 0.338258	 0.0766899	 120.7	 142.0	 142.0	 0.0	 0.0	 1	 -30.0	 30.0;
	50188	 76341	 0.141781	 0.37712	 0.0889443	 100.3	 118.0	 118.0	 0.0	 0.0	 1	 -30.0	 30.0;
	50189	 50190	 0.0257896	 0.0648415	 0.0168021	 100.3	 118.0	 118.0	 0.0	 0.0	 1	 -30.0	 30.0;
	50189	 50194	 0.000863972	 0.0036566	 0.000822773	 135.15	 159.0	 159.0	 0.0	 0.0	 1	 -30.0	 30.0;
	50189	 51914	 0.0168891	 0.182453	 0.0523502	 260.95	 307.0	 307.0	 0.0	 0.0	 1	 -30.0	 30.0;
	50190	 50197	 0.00496419	 0.0170291	 0.00407962	 120.7	 142.0	 142.0	 0.0	 0.0	 1	 -30.0	 30.0;
	50190	 51948	 0.0371638	 0.109623	 0.0255175	 108.8	 128.0	 128.0	 0.0	 0.0	 1	 -30.0	 30.0;
	50191	 51963	 0.0291578	 0.0911772	 0.0264233	 120.7	 142.0	 142.0	 0.0	 0.0	 1	 -30.0	 30.0;
	50191	 52044	 0.0110355	 0.0506313	 0.0129721	 148.75	 175.0	 175.0	 0.0	 0.0	 1	 -30.0	 30.0;
	50192	 51956	 0.0034022	 0.0236322	 0.927636	 675.75	 795.0	 795.0	 0.0	 0.0	 1	 -30.0	 30.0;
	50192	 51968	 0.00315007	 0.0227452	 0.823842	 675.75	 795.0	 795.0	 0.0	 0.0	 1	 -30.0	 30.0;
	50192	 51971	 0.00316548	 0.0219767	 0.862015	 675.75	 795.0	 795.0	 0.0	 0.0	 1	 -30.0	 30.0;
	50192	 52042	 0.00422199	 0.0305649	 1.11127	 675.75	 795.0	 795.0	 0.0	 0.0	 1	 -30.0	 30.0;
	50193	 51968	 0.0007502	 0.00908774	 0.354648	 946.05	 1113.0	 1113.0	 0.0	 0.0	 1	 -30.0	 30.0;
	50193	 52017	 0.00403693	 0.0382974	 1.58509	 804.95	 947.0	 947.0	 0.0	 0.0	 1	 -30.0	 30.0;
	50194	 51854	 0.0102088	 0.078238	 0.020966	 202.3	 238.0	 238.0	 0.0	 0.0	 1	 -30.0	 30.0;
	50195	 51921	 0.192104	 0.470563	 0.00805239	 50.15	 59.0	 59.0	 0.0	 0.0	 1	 -30.0	 30.0;
	50195	 51953	 0.060683	 0.259499	 0.00586438	 78.2	 92.0	 92.0	 0.0	 0.0	 1	 -30.0	 30.0;
	50195	 51954	 0.728844	 0.705971	 0.0102566	 44.0	 44.0	 49.0	 0.0	 0.0	 1	 -30.0	 30.0;
	50195	 52021	 1.00775	 0.978373	 0.0142209	 44.0	 44.0	 49.0	 0.0	 0.0	 1	 -30.0	 30.0;
	50196	 51976	 0.0126499	 0.0395423	 0.0114542	 120.7	 142.0	 142.0	 0.0	 0.0	 1	 -30.0	 30.0;
	50197	 52025	 0.042725	 0.19634	 0.0504166	 148.75	 175.0	 175.0	 0.0	 0.0	 1	 -30.0	 30.0;
	50200	 51975	 1.23315	 1.16507	 0.0180175	 44.0	 44.0	 49.0	 0.0	 0.0	 1	 -30.0	 30.0;
	50200	 51985	 0.749036	 0.758449	 0.0100513	 44.0	 44.0	 49.0	 0.0	 0.0	 1	 -30.0	 30.0;
	50200	 75496	 0.000545834	 0.00164287	 3.21227e-05	 60.35	 71.0	 71.0	 0.0	 0.0	 1	 -30.0	 30.0;
	50201	 51919	 0.000791512	 0.00547849	 0.213947	 675.75	 795.0	 795.0	 0.0	 0.0	 1	 -30.0	 30.0;
	50201	 51943	 0.00506594	 0.0353565	 1.39737	 675.75	 795.0	 795.0	 0.0	 0.0	 1	 -30.0	 30.0;
	50201	 51956	 0.00731627	 0.0536449	 1.98628	 675.75	 795.0	 795.0	 0.0	 0.0	 1	 -30.0	 30.0;
	50202	 51874	 0.0108513	 0.0434479	 0.0109469	 135.15	 159.0	 159.0	 0.0	 0.0	 1	 -30.0	 30.0;
	50202	 51879	 0.00465718	 0.0186457	 0.00469743	 135.15	 159.0	 159.0	 0.0	 0.0	 1	 -30.0	 30.0;
	50202	 51880	 0.00990041	 0.0261657	 0.00612465	 109.65	 129.02	 129.02	 0.0	 0.0	 1	 -30.0	 30.0;
	50202	 51967	 0.0035198	 0.014897	 0.00335202	 135.15	 159.0	 159.0	 0.0	 0.0	 1	 -30.0	 30.0;
	50202	 76314	 0.00185631	 0.0154157	 0.00603015	 241.4	 284.0	 284.0	 0.0	 0.0	 1	 -30.0	 30.0;
	50203	 51971	 0.000794158	 0.00549681	 0.214663	 675.75	 795.0	 795.0	 0.0	 0.0	 1	 -30.0	 30.0;
	50205	 51852	 0.0459662	 0.12156	 0.0284751	 107.61	 126.59	 126.59	 0.0	 0.0	 1	 -30.0	 30.0;
	50205	 52018	 0.00210423	 0.0056491	 0.00128026	 100.3	 118.0	 118.0	 0.0	 0.0	 1	 -30.0	 30.0;
	50206	 50560	 0.00405178	 0.0293189	 1.06525	 675.75	 795.0	 795.0	 0.0	 0.0	 1	 -30.0	 30.0;
	50206	 51362	 0.00288372	 0.0208111	 0.753217	 995.0	 1195.0	 1195.0	 0.0	 0.0	 1	 -30.0	 30.0;
	50206	 75498	 1e-07	 0.0001	 0.0	 800.0	 800.0	 800.0	 0.0	 0.0	 1	 -30.0	 30.0;
	50207	 51570	 0.000837	 0.02477	 2.108	 1275.0	 1500.0	 1500.0	 0.0	 0.0	 1	 -30.0	 30.0;
	50207	 51602	 0.000591087	 0.0174005	 1.83569	 1275.0	 1500.0	 1500.0	 0.0	 0.0	 1	 -30.0	 30.0;
	50207	 51734	 0.00170966	 0.0146727	 0.540374	 733.55	 863.0	 863.0	 0.0	 0.0	 1	 -30.0	 30.0;
	50208	 51731	 0.000275225	 0.00338176	 0.0541787	 1011.5	 1190.0	 1190.0	 0.0	 0.0	 1	 -30.0	 30.0;
	50208	 75503	 0.00212259	 0.018339	 0.269895	 810.9	 954.0	 954.0	 0.0	 0.0	 1	 -30.0	 30.0;
	50209	 51362	 0.00263044	 0.0189746	 0.686298	 786.25	 925.0	 925.0	 0.0	 0.0	 1	 -30.0	 30.0;
	50209	 51837	 0.000107512	 0.00134999	 0.0586168	 1000.45	 1177.0	 1177.0	 0.0	 0.0	 1	 -30.0	 30.0;
...